1
    SWAT Dec 23 2016    VER 2016/Rev 664                                                                 0/ 0/   0      0: 0: 0

    General Input/Output section (file.cio):                                        
    5/31/2025 12:00:00 AM ARCGIS-SWAT interface AV                                  
                                                                                    


       SUBTEST      GIS  MON   AREAkm2  PRECIPmm SNOMELTmm     PETmm      ETmm      SWmm    PERCmm    SURQmm    GW_Qmm    WYLDmm  SYLDt/ha ORGNkg/ha ORGPkg/haNSURQkg/ha SOLPkg/ha SEDPkg/ha LAT Q(mm)LATNO3kg/hGWNO3kg/haCHOLAmic/LCBODU mg/L DOXQ mg/L TNO3kg/ha   QTILEmm TVAPkg/ha    SnoCov  GLMELTmm   GLACCmm
BIGSUB   1        0    3.24803E+01   151.149     1.452     5.951     3.100   120.309    11.675    15.894     0.265    44.273    75.360    92.691    11.355     0.009     0.004     8.882    28.110     0.519     0.000 .00000E+00 0.000E+00 0.000E+00 0.000E+00 0.000E+00 0.000E+00
BIGSUB   0        0    0
BIGSUB   2        0    3.14730E+01   151.300     0.713     1.687     0.803    87.451     0.000     2.654     0.000     3.288    10.469    21.585     2.644     0.015     0.001     2.059     0.634     0.007     0.000 .00000E+00 0.000E+00 0.000E+00 0.000E+00 0.000E+00 0.000E+00
BIGSUB   0        0    0
BIGSUB   3        0    3.13769E+01   151.451    27.969     4.217     3.246   104.487     0.000    14.024     0.000    16.044    49.622    85.919    10.525     0.012     0.003     8.221     2.020     0.012     0.000 .00000E+00 0.000E+00 0.000E+00 0.000E+00 0.000E+00 0.000E+00
BIGSUB   0        0    0
BIGSUB   1        0    4.24803E+01    64.535    12.886    18.865     9.741   121.125    23.660     9.758     8.777    38.368    54.177    22.394     2.743     0.002     0.001     2.209    19.696     0.339     0.008 .00000E+00 0.000E+00 0.000E+00 0.000E+00 0.000E+00 0.000E+00
BIGSUB   0        0    0
BIGSUB   2        0    4.14730E+01    64.600     6.517     8.548     6.501    96.767     0.000     2.341     0.000     2.341    12.102    19.795     2.425     0.002     0.001     1.892     0.000     0.000     0.000 .00000E+00 0.000E+00 0.000E+00 0.000E+00 0.000E+00 0.000E+00
BIGSUB   0        0    0
BIGSUB   3        0    4.13769E+01    64.665     9.474    17.274    15.769   109.555     0.000     4.623     0.000     4.623    22.575    23.497     2.878     0.003     0.001     2.267     0.000     0.000     0.000 .00000E+00 0.000E+00 0.000E+00 0.000E+00 0.000E+00 0.000E+00
BIGSUB   0        0    0
BIGSUB   1        0    5.24803E+01     9.491     9.972    16.429     8.753   121.199     5.496     0.002    13.509    18.762     0.008     0.001     0.000     0.000     0.000     0.000     4.931     0.068     0.009 .00000E+00 0.000E+00 0.000E+00 0.000E+00 0.000E+00 0.000E+00
BIGSUB   0        0    0
BIGSUB   2        0    5.14730E+01     9.500    15.072    10.180     7.308   107.118     0.000     1.264     0.000     1.264     3.965     9.205     1.128     0.000     0.000     0.883     0.000     0.000     0.000 .00000E+00 0.000E+00 0.000E+00 0.000E+00 0.000E+00 0.000E+00
BIGSUB   0        0    0
BIGSUB   3        0    5.13769E+01     9.510     0.757    22.277    16.612   102.255     0.000     0.069     0.000     0.069     0.256     0.195     0.024     0.002     0.000     0.019     0.000     0.000     0.000 .00000E+00 0.000E+00 0.000E+00 0.000E+00 0.000E+00 0.000E+00
BIGSUB   0        0    0
BIGSUB   1        0    6.24803E+01     7.992     0.872    14.760     7.625   119.393     1.573     0.002     8.917    10.947     0.005     0.000     0.000     0.000     0.000     0.000     1.687     0.022     0.003 .00000E+00 0.000E+00 0.000E+00 0.000E+00 0.000E+00 0.000E+00
BIGSUB   0        0    0
BIGSUB   2        0    6.14730E+01     8.000     1.088     9.717     6.035   105.813     0.000     0.015     0.000     0.015     0.058     0.081     0.010     0.001     0.000     0.008     0.000     0.000     0.000 .00000E+00 0.000E+00 0.000E+00 0.000E+00 0.000E+00 0.000E+00
BIGSUB   0        0    0
BIGSUB   3        0    6.13769E+01     8.008     0.890    21.500    16.181    94.724     0.000     0.001     0.000     0.001     0.004     0.004     0.000     0.000     0.000     0.000     0.000     0.000     0.000 .00000E+00 0.000E+00 0.000E+00 0.000E+00 0.000E+00 0.000E+00
BIGSUB   0        0    0
BIGSUB   1        0    7.24803E+01     5.894     0.643    20.299     9.522   116.607     0.000     0.000     5.001     5.724     0.000     0.000     0.000     0.000     0.000     0.000     0.406     0.001     0.001 .00000E+00 0.000E+00 0.000E+00 0.000E+00 0.000E+00 0.000E+00
BIGSUB   0        0    0
BIGSUB   2        0    7.14730E+01     5.900     0.870    11.710     6.292   103.853     0.000     0.000     0.000     0.000     0.000     0.001     0.000     0.000     0.000     0.000     0.000     0.000     0.000 .00000E+00 0.000E+00 0.000E+00 0.000E+00 0.000E+00 0.000E+00
BIGSUB   0        0    0
BIGSUB   3        0    7.13769E+01     5.906     0.864    24.246    15.176    88.275     0.000     0.000     0.000     0.000     0.000     0.000     0.000     0.000     0.000     0.000     0.000     0.000     0.000 .00000E+00 0.000E+00 0.000E+00 0.000E+00 0.000E+00 0.000E+00
BIGSUB   0        0    0
BIGSUB   1        0    8.24803E+01    18.981     2.067    11.109     6.185   120.889     3.260     0.159     2.289     6.407     0.612     0.069     0.008     0.000     0.000     0.008     3.700     0.041     0.000 .00000E+00 0.000E+00 0.000E+00 0.000E+00 0.000E+00 0.000E+00
BIGSUB   0        0    0
BIGSUB   2        0    8.14730E+01    19.000     2.494     7.779     4.760   106.277     0.000     0.073     0.000     0.073     0.442     0.558     0.068     0.005     0.000     0.054     0.000     0.000     0.000 .00000E+00 0.000E+00 0.000E+00 0.000E+00 0.000E+00 0.000E+00
BIGSUB   0        0    0
BIGSUB   3        0    8.13769E+01    19.019     3.313    18.148    12.103    87.060     0.000     0.565     0.000     0.565     1.868     1.879     0.230     0.047     0.000     0.186     0.000     0.000     0.000 .00000E+00 0.000E+00 0.000E+00 0.000E+00 0.000E+00 0.000E+00
BIGSUB   0        0    0
BIGSUB   1        0    9.24803E+01    23.077     2.527     9.699     5.340   121.034     8.380     0.292     3.027    10.352     1.342     0.108     0.013     0.000     0.000     0.012     6.807     0.108     0.001 .00000E+00 0.000E+00 0.000E+00 0.000E+00 0.000E+00 0.000E+00
BIGSUB   0        0    0
BIGSUB   2        0    9.14730E+01    23.100     3.229     5.895     3.758   110.289     0.000     0.183     0.000     0.183     0.701     0.969     0.119     0.013     0.000     0.094     0.000     0.000     0.000 .00000E+00 0.000E+00 0.000E+00 0.000E+00 0.000E+00 0.000E+00
BIGSUB   0        0    0
BIGSUB   3        0    9.13769E+01    23.123     5.188    13.133     9.099    89.088     0.000     1.273     0.000     1.273    10.104     5.271     0.646     0.104     0.000     0.523     0.000     0.000     0.000 .00000E+00 0.000E+00 0.000E+00 0.000E+00 0.000E+00 0.000E+00
BIGSUB   0        0    0
BIGSUB   1        0   10.24803E+01    56.943     1.699    10.585     5.737   120.956    21.438     1.549     6.049    22.955     6.864     0.597     0.073     0.000     0.000     0.069    15.094     0.228     0.002 .00000E+00 0.000E+00 0.000E+00 0.000E+00 0.000E+00 0.000E+00
BIGSUB   0        0    0
BIGSUB   2        0   10.14730E+01    57.000     3.343     4.793     2.942   119.334     0.000     1.035     0.000     1.035     2.627     4.264     0.522     0.026     0.000     0.411     0.000     0.000     0.000 .00000E+00 0.000E+00 0.000E+00 0.000E+00 0.000E+00 0.000E+00
BIGSUB   0        0    0
BIGSUB   3        0   10.13769E+01    57.057    20.776     8.975     6.417   105.514     0.000     9.600     0.000     9.600    24.857    17.357     2.126     0.142     0.001     1.725     0.000     0.000     0.000 .00000E+00 0.000E+00 0.000E+00 0.000E+00 0.000E+00 0.000E+00
BIGSUB   0        0    0
BIGSUB   1        0   11.24803E+01   126.973     3.838     8.348     4.599   121.561    47.481    10.761    15.796    61.054    42.594     5.923     0.725     0.000     0.000     0.611    34.071     0.409     0.013 .00000E+00 0.000E+00 0.000E+00 0.000E+00 0.000E+00 0.000E+00
BIGSUB   0        0    0
BIGSUB   2        0   11.14730E+01   127.100     4.327     2.385     1.243   138.914     0.000     3.829     0.000     3.829    13.530    19.014     2.329     0.001     0.001     1.836     0.000     0.000     0.000 .00000E+00 0.000E+00 0.000E+00 0.000E+00 0.000E+00 0.000E+00
BIGSUB   0        0    0
BIGSUB   3        0   11.13769E+01   127.227    28.217     3.218     1.727   137.767     0.000    18.363     0.000    18.363    40.366    19.628     2.404     0.002     0.001     1.950     0.000     0.000     0.000 .00000E+00 0.000E+00 0.000E+00 0.000E+00 0.000E+00 0.000E+00
BIGSUB   0        0    0
BIGSUB   1        0   12.24803E+01   192.407     5.512     7.499     4.069   121.072    68.249    27.694    32.936   108.879   125.939    20.537     2.515     0.001     0.001     2.005    47.421     0.390     0.038 .00000E+00 0.000E+00 0.000E+00 0.000E+00 0.000E+00 0.000E+00
BIGSUB   0        0    0
BIGSUB   2        0   12.14730E+01   192.600     6.430     2.128     1.113   165.839     0.000     9.001     0.000     9.001    26.656    33.031     4.046     0.000     0.001     3.204     0.000     0.000     0.000 .00000E+00 0.000E+00 0.000E+00 0.000E+00 0.000E+00 0.000E+00
BIGSUB   0        0    0
BIGSUB   3        0   12.13769E+01   192.793    63.222     2.843     1.510   185.367     0.000    52.759     0.000    52.759   163.002    27.396     3.356     0.001     0.001     2.731     0.000     0.000     0.000 .00000E+00 0.000E+00 0.000E+00 0.000E+00 0.000E+00 0.000E+00
BIGSUB   0        0    0
BIGSUB   1        0 1981.24803E+01   657.442    41.469   123.542    64.670   121.072   191.214    66.111    96.565   327.720   306.901   142.319    17.433     0.012     0.006    13.797   161.924     2.126     0.073 .00000E+00 0.000E+00 0.000E+00 0.000E+00 0.000E+00 0.000E+00
BIGSUB   0        0    0
BIGSUB   2        0 1981.14730E+01   658.100    44.082    64.822    40.756   165.839     0.000    20.394     0.000    21.028    70.551   108.502    13.291     0.064     0.004    10.440     0.634     0.007     0.000 .00000E+00 0.000E+00 0.000E+00 0.000E+00 0.000E+00 0.000E+00
BIGSUB   0        0    0
BIGSUB   3        0 1981.13769E+01   658.758   160.672   135.831    97.841   185.367     0.000   101.276     0.000   103.296   312.655   181.146    22.190     0.312     0.007    17.623     2.020     0.012     0.000 .00000E+00 0.000E+00 0.000E+00 0.000E+00 0.000E+00 0.000E+00
BIGSUB   0        0    0
BIGSUB   1        0    1.24803E+01   204.495     8.713     4.620     2.489   121.607    77.262    24.861    49.920   131.429    76.111    21.452     2.627     0.000     0.001     2.074    55.291     0.298     0.061 .00000E+00 0.000E+00 0.000E+00 0.000E+00 0.000E+00 0.000E+00
BIGSUB   0        0    0
BIGSUB   2        0    1.14730E+01   204.700    12.636     1.271     0.689   199.490     0.000    10.833     0.000    10.833    38.285    30.053     3.681     0.002     0.001     2.923     0.000     0.000     0.000 .00000E+00 0.000E+00 0.000E+00 0.000E+00 0.000E+00 0.000E+00
BIGSUB   0        0    0
BIGSUB   3        0    1.13769E+01   204.905    79.820     1.765     0.980   241.394     0.000    61.799     0.000    61.799   172.156    30.789     3.772     0.011     0.002     3.007     0.000     0.000     0.000 .00000E+00 0.000E+00 0.000E+00 0.000E+00 0.000E+00 0.000E+00
BIGSUB   0        0    0
BIGSUB   1        0    2.24803E+01   316.783    31.650     2.875     1.639   121.598   114.705    70.199    64.080   216.471   243.744    27.559     3.375     0.000     0.002     2.688    80.372     0.257     0.074 .00000E+00 0.000E+00 0.000E+00 0.000E+00 0.000E+00 0.000E+00
BIGSUB   0        0    0
BIGSUB   2        0    2.14730E+01   317.100    12.636     0.807     0.464   237.729     3.573    19.968     0.000    20.458    59.533    43.489     5.327     0.000     0.002     4.248     0.490     0.027     0.000 .00000E+00 0.000E+00 0.000E+00 0.000E+00 0.000E+00 0.000E+00
BIGSUB   0        0    0
BIGSUB   3        0    2.13769E+01   317.417    47.209     1.188     0.703   249.802    35.518    57.395     2.559    67.892   229.408    10.005     1.226     0.000     0.001     1.011     7.884     0.408     0.002 .00000E+00 0.000E+00 0.000E+00 0.000E+00 0.000E+00 0.000E+00
BIGSUB   0        0    0
BIGSUB   1        0    3.24803E+01   137.363   161.987    15.985     8.473   121.559   121.223    57.059    92.484   236.937   238.915     7.200     0.882     0.000     0.001     0.716    84.571     0.162     0.081 .00000E+00 0.000E+00 0.000E+00 0.000E+00 0.000E+00 0.000E+00
BIGSUB   0        0    0
BIGSUB   2        0    3.14730E+01   137.500    54.947     5.221     3.090   243.944    34.734    27.051     5.659    40.325    94.465    22.533     2.760     0.000     0.001     2.256     7.528     0.385     0.005 .00000E+00 0.000E+00 0.000E+00 0.000E+00 0.000E+00 0.000E+00
BIGSUB   0        0    0
BIGSUB   3        0    3.13769E+01   137.638    66.380     9.202     6.873   248.581    38.940    45.114    18.181    73.199   163.300     0.427     0.052     0.000     0.000     0.055     9.556     0.430     0.019 .00000E+00 0.000E+00 0.000E+00 0.000E+00 0.000E+00 0.000E+00
BIGSUB   0        0    0
BIGSUB   1        0    4.24803E+01    72.827    85.779    12.149     6.708   121.243    66.363    23.433    99.887   177.519    73.632     1.202     0.147     0.000     0.000     0.121    50.756     0.070     0.057 .00000E+00 0.000E+00 0.000E+00 0.000E+00 0.000E+00 0.000E+00
BIGSUB   0        0    0
BIGSUB   2        0    4.14730E+01    72.900    61.288     5.696     4.297   246.100    34.358    26.517    18.411    52.982    83.372     4.183     0.512     0.000     0.000     0.439     7.697     0.326     0.024 .00000E+00 0.000E+00 0.000E+00 0.000E+00 0.000E+00 0.000E+00
BIGSUB   0        0    0
BIGSUB   3        0    4.13769E+01    72.973    43.228    15.075    14.111   247.573    19.000    23.844    26.326    56.079    99.558     0.016     0.002     0.001     0.000     0.002     5.261     0.189     0.029 .00000E+00 0.000E+00 0.000E+00 0.000E+00 0.000E+00 0.000E+00
BIGSUB   0        0    0
BIGSUB   1        0    5.24803E+01    16.583    41.215    10.957     6.293   121.230    27.668     0.405    79.718   104.459     1.127     0.000     0.000     0.000     0.000     0.000    20.653     0.033     0.025 .00000E+00 0.000E+00 0.000E+00 0.000E+00 0.000E+00 0.000E+00
BIGSUB   0        0    0
BIGSUB   2        0    5.14730E+01    16.600    61.688     7.518     6.433   243.861    31.215    24.316    27.419    59.476    68.412     0.701     0.086     0.000     0.000     0.078     7.061     0.237     0.037 .00000E+00 0.000E+00 0.000E+00 0.000E+00 0.000E+00 0.000E+00
BIGSUB   0        0    0
BIGSUB   3        0    5.13769E+01    16.617    21.182    17.270    16.351   239.797    12.591     5.099    22.819    32.083    18.237     0.001     0.000     0.000     0.000     0.000     3.361     0.092     0.018 .00000E+00 0.000E+00 0.000E+00 0.000E+00 0.000E+00 0.000E+00
BIGSUB   0        0    0
BIGSUB   1        0    6.24803E+01     8.092    27.282    17.500     9.678   120.660    14.632     0.013    48.187    63.897     0.038     0.000     0.000     0.000     0.000     0.000    12.493     0.023     0.008 .00000E+00 0.000E+00 0.000E+00 0.000E+00 0.000E+00 0.000E+00
BIGSUB   0        0    0
BIGSUB   2        0    6.14730E+01     8.100    15.603    10.530     8.289   240.382    11.386     0.596    25.414    29.508     1.672     0.006     0.001     0.000     0.000     0.001     2.654     0.076     0.025 .00000E+00 0.000E+00 0.000E+00 0.000E+00 0.000E+00 0.000E+00
BIGSUB   0        0    0
BIGSUB   3        0    6.13769E+01     8.108    18.318    22.637    17.804   230.949    11.042     3.456    16.527    23.830    12.101     0.001     0.000     0.000     0.000     0.000     3.063     0.069     0.011 .00000E+00 0.000E+00 0.000E+00 0.000E+00 0.000E+00 0.000E+00
BIGSUB   0        0    0
BIGSUB   1        0    7.24803E+01     7.892    28.702    14.575     8.077   119.988    16.302     0.004    30.414    45.647     0.016     0.000     0.000     0.000     0.000     0.000    12.433     0.027     0.003 .00000E+00 0.000E+00 0.000E+00 0.000E+00 0.000E+00 0.000E+00
BIGSUB   0        0    0
BIGSUB   2        0    7.14730E+01     7.900    16.477     9.428     6.722   237.849    12.090     0.958    19.029    23.472     3.696     0.013     0.002     0.000     0.000     0.002     2.600     0.069     0.011 .00000E+00 0.000E+00 0.000E+00 0.000E+00 0.000E+00 0.000E+00
BIGSUB   0        0    0
BIGSUB   3        0    7.13769E+01     7.908    14.524    20.662    15.502   223.522     8.804     2.752    12.599    18.640    12.683     0.000     0.000     0.000     0.000     0.000     2.516     0.048     0.007 .00000E+00 0.000E+00 0.000E+00 0.000E+00 0.000E+00 0.000E+00
BIGSUB   0        0    0
BIGSUB   1        0    8.24803E+01    13.786    28.847    11.053     6.199   120.426    19.110     0.206    21.523    38.408     1.090     0.000     0.000     0.000     0.000     0.000    14.357     0.035     0.002 .00000E+00 0.000E+00 0.000E+00 0.000E+00 0.000E+00 0.000E+00
BIGSUB   0        0    0
BIGSUB   2        0    8.14730E+01    13.800    17.330     7.423     5.681   236.005    12.849     1.611    14.664    19.876     4.670     0.019     0.002     0.000     0.000     0.002     2.761     0.068     0.006 .00000E+00 0.000E+00 0.000E+00 0.000E+00 0.000E+00 0.000E+00
BIGSUB   0        0    0
BIGSUB   3        0    8.13769E+01    13.814     5.249    16.619    13.622   217.612     3.278     0.069     9.046    10.650     0.333     0.000     0.000     0.000     0.000     0.000     0.840     0.015     0.003 .00000E+00 0.000E+00 0.000E+00 0.000E+00 0.000E+00 0.000E+00
BIGSUB   0        0    0
BIGSUB   1        0    9.24803E+01    22.977    21.721    11.065     6.082   120.057    19.325     0.433    18.495    35.656     1.467     0.000     0.000     0.000     0.000     0.000    14.828     0.038     0.002 .00000E+00 0.000E+00 0.000E+00 0.000E+00 0.000E+00 0.000E+00
BIGSUB   0        0    0
BIGSUB   2        0    9.14730E+01    23.000    13.766     6.070     4.625   235.203    10.181     2.240    12.363    17.714     8.085     0.126     0.015     0.005     0.000     0.013     2.349     0.054     0.004 .00000E+00 0.000E+00 0.000E+00 0.000E+00 0.000E+00 0.000E+00
BIGSUB   0        0    0
BIGSUB   3        0    9.13769E+01    23.023    10.744    14.137    12.530   215.080     5.742     1.320     6.149     9.563     5.751     0.000     0.000     0.005     0.000     0.000     1.520     0.025     0.002 .00000E+00 0.000E+00 0.000E+00 0.000E+00 0.000E+00 0.000E+00
BIGSUB   0        0    0
BIGSUB   1        0   10.24803E+01    79.121     5.958     5.592     3.215   121.518    32.292     4.298    20.112    49.928    23.700     0.143     0.018     0.000     0.000     0.014    23.793     0.061     0.002 .00000E+00 0.000E+00 0.000E+00 0.000E+00 0.000E+00 0.000E+00
BIGSUB   0        0    0
BIGSUB   2        0   10.14730E+01    79.200    11.697     2.006     1.327   240.029    11.934     3.990    11.247    18.417    11.970     0.298     0.037     0.002     0.000     0.031     2.447     0.052     0.003 .00000E+00 0.000E+00 0.000E+00 0.000E+00 0.000E+00 0.000E+00
BIGSUB   0        0    0
BIGSUB   3        0   10.13769E+01    79.279    28.437     6.181     5.310   231.823     7.704    11.950     6.016    20.630    42.486     0.006     0.001     0.007     0.000     0.001     2.147     0.033     0.001 .00000E+00 0.000E+00 0.000E+00 0.000E+00 0.000E+00 0.000E+00
BIGSUB   0        0    0
BIGSUB   1        0   11.24803E+01   132.268    37.827     5.300     2.995   121.579    67.133    18.366    28.402    95.072    49.628     0.533     0.065     0.000     0.000     0.053    46.665     0.100     0.005 .00000E+00 0.000E+00 0.000E+00 0.000E+00 0.000E+00 0.000E+00
BIGSUB   0        0    0
BIGSUB   2        0   11.14730E+01   132.400    40.549     1.472     0.808   246.441    30.366    17.834    13.866    39.172    45.002     0.432     0.053     0.000     0.000     0.046     6.758     0.123     0.005 .00000E+00 0.000E+00 0.000E+00 0.000E+00 0.000E+00 0.000E+00
BIGSUB   0        0    0
BIGSUB   3        0   11.13769E+01   132.532    42.514     2.543     1.831   249.801    18.885    23.597     6.978    35.549    65.842     0.009     0.001     0.000     0.000     0.001     4.505     0.108     0.002 .00000E+00 0.000E+00 0.000E+00 0.000E+00 0.000E+00 0.000E+00
BIGSUB   0        0    0
BIGSUB   1        0   12.24803E+01    88.012    94.755     5.736     3.175   121.593    77.520    24.879    47.735   129.644    75.266     0.810     0.099     0.000     0.000     0.080    55.067     0.089     0.012 .00000E+00 0.000E+00 0.000E+00 0.000E+00 0.000E+00 0.000E+00
BIGSUB   0        0    0
BIGSUB   2        0   12.14730E+01    88.100    61.525     1.612     0.862   249.231    38.324    25.642    21.971    56.871    68.068     0.786     0.096     0.000     0.000     0.082     8.382     0.164     0.010 .00000E+00 0.000E+00 0.000E+00 0.000E+00 0.000E+00 0.000E+00
BIGSUB   0        0    0
BIGSUB   3        0   12.13769E+01    88.188    66.258     2.210     1.207   249.801    35.663    38.113    15.308    62.561   115.464     0.010     0.001     0.000     0.000     0.001     8.552     0.219     0.006 .00000E+00 0.000E+00 0.000E+00 0.000E+00 0.000E+00 0.000E+00
BIGSUB   0        0    0
BIGSUB   1        0 1982.24803E+01  1100.199   574.437   117.405    65.025   121.593   653.534   224.158   600.958  1325.067   784.735    58.900     7.213     0.001     0.005     5.747   471.280     1.193     0.331 .00000E+00 0.000E+00 0.000E+00 0.000E+00 0.000E+00 0.000E+00
BIGSUB   0        0    0
BIGSUB   2        0 1982.14730E+01  1101.300   380.142    59.054    43.288   249.231   231.012   161.557   170.044   389.107   487.230   102.638    12.573     0.009     0.004    10.120    50.727     1.581     0.131 .00000E+00 0.000E+00 0.000E+00 0.000E+00 0.000E+00 0.000E+00
BIGSUB   0        0    0
BIGSUB   3        0 1982.13769E+01  1102.401   443.862   129.489   106.824   249.801   197.170   274.509   142.509   472.475   937.317    41.266     5.056     0.024     0.002     4.079    49.205     1.635     0.100 .00000E+00 0.000E+00 0.000E+00 0.000E+00 0.000E+00 0.000E+00
BIGSUB   0        0    0
BIGSUB   1        0    1.24803E+01   156.044   114.511     5.245     2.852   121.589   103.067    60.420    64.254   200.274   202.237    24.810     3.038     0.000     0.002     2.407    73.218     0.091     0.017 .00000E+00 0.000E+00 0.000E+00 0.000E+00 0.000E+00 0.000E+00
BIGSUB   0        0    0
BIGSUB   2        0    1.14730E+01   156.200   129.601     1.417     0.781   249.231    56.931    86.010    32.033   131.830   253.446    31.475     3.856     0.003     0.002     3.063    12.660     0.273     0.018 .00000E+00 0.000E+00 0.000E+00 0.000E+00 0.000E+00 0.000E+00
BIGSUB   0        0    0
BIGSUB   3        0    1.13769E+01   156.356    57.012     1.984     1.122   249.802    38.611    51.011    24.744    85.896   191.701    25.142     3.080     0.000     0.001     2.430     9.335     0.185     0.013 .00000E+00 0.000E+00 0.000E+00 0.000E+00 0.000E+00 0.000E+00
BIGSUB   0        0    0
BIGSUB   1        0    2.24803E+01   192.407   133.657     9.671     5.101   121.607   108.570    91.125    74.493   241.685   223.146     6.223     0.762     0.000     0.001     0.622    73.409     0.071     0.019 .00000E+00 0.000E+00 0.000E+00 0.000E+00 0.000E+00 0.000E+00
BIGSUB   0        0    0
BIGSUB   2        0    2.14730E+01   192.600    89.708     3.072     1.725   249.221    47.859    61.175    37.888   110.940   166.735     0.476     0.058     0.000     0.000     0.062    10.576     0.171     0.023 .00000E+00 0.000E+00 0.000E+00 0.000E+00 0.000E+00 0.000E+00
BIGSUB   0        0    0
BIGSUB   3        0    2.13769E+01   192.793    47.583     3.847     2.050   249.802    32.830    53.111    27.708    89.791   210.706     4.674     0.574     0.000     0.000     0.472     8.036     0.131     0.014 .00000E+00 0.000E+00 0.000E+00 0.000E+00 0.000E+00 0.000E+00
BIGSUB   0        0    0
BIGSUB   1        0    3.24803E+01   247.253   192.223     5.479     3.203   121.669   151.996   119.557   105.262   332.387   426.204     1.258     0.154     0.000     0.001     0.129   103.899     0.074     0.026 .00000E+00 0.000E+00 0.000E+00 0.000E+00 0.000E+00 0.000E+00
BIGSUB   0        0    0
BIGSUB   2        0    3.14730E+01   247.500   100.183     2.505     1.928   249.232    53.522    72.826    46.778   133.183   216.349     0.065     0.009     0.000     0.000     0.009    11.861     0.138     0.026 .00000E+00 0.000E+00 0.000E+00 0.000E+00 0.000E+00 0.000E+00
BIGSUB   0        0    0
BIGSUB   3        0    3.13769E+01   247.747    67.205     2.585     1.660   249.802    45.387    73.711    34.923   120.793   260.977     0.582     0.074     0.000     0.000     0.064    10.908     0.156     0.017 .00000E+00 0.000E+00 0.000E+00 0.000E+00 0.000E+00 0.000E+00
BIGSUB   0        0    0
BIGSUB   1        0    4.24803E+01   112.088   183.534     9.111     5.250   121.362   118.751    64.128   119.757   275.108   242.154     0.285     0.035     0.000     0.001     0.028    86.883     0.053     0.024 .00000E+00 0.000E+00 0.000E+00 0.000E+00 0.000E+00 0.000E+00
BIGSUB   0        0    0
BIGSUB   2        0    4.14730E+01   112.200    96.209     5.433     4.532   249.159    45.277    56.080    47.263   115.505   208.694     0.022     0.003     0.000     0.000     0.002    10.273     0.074     0.019 .00000E+00 0.000E+00 0.000E+00 0.000E+00 0.000E+00 0.000E+00
BIGSUB   0        0    0
BIGSUB   3        0    4.13769E+01   112.312    68.304    10.920     9.957   249.095    29.823    51.886    36.468    97.750   216.672     0.099     0.013     0.000     0.000     0.011     7.985     0.070     0.015 .00000E+00 0.000E+00 0.000E+00 0.000E+00 0.000E+00 0.000E+00
BIGSUB   0        0    0
BIGSUB   1        0    5.24803E+01    21.878    44.141    10.793     6.264   121.136    32.386     0.352   109.021   139.408     0.963     0.000     0.000     0.000     0.000     0.000    25.221     0.021     0.015 .00000E+00 0.000E+00 0.000E+00 0.000E+00 0.000E+00 0.000E+00
BIGSUB   0        0    0
BIGSUB   2        0    5.14730E+01    21.900    75.450     7.405     6.358   247.324    34.750    34.289    46.084    90.381   103.539     0.011     0.001     0.000     0.000     0.001     7.935     0.029     0.012 .00000E+00 0.000E+00 0.000E+00 0.000E+00 0.000E+00 0.000E+00
BIGSUB   0        0    0
BIGSUB   3        0    5.13769E+01    21.922    30.227    17.082    16.185   242.950    15.261    10.439    31.804    48.034    38.962     0.002     0.000     0.000     0.000     0.000     4.287     0.012     0.007 .00000E+00 0.000E+00 0.000E+00 0.000E+00 0.000E+00 0.000E+00
BIGSUB   0        0    0
BIGSUB   1        0    6.24803E+01    15.684    28.262    10.231     5.919   121.206    20.207     0.018    68.481    88.640     0.067     0.000     0.000     0.000     0.000     0.000    15.868     0.018     0.006 .00000E+00 0.000E+00 0.000E+00 0.000E+00 0.000E+00 0.000E+00
BIGSUB   0        0    0
BIGSUB   2        0    6.14730E+01    15.700    16.568     7.600     6.552   245.176    12.981     0.770    35.544    41.261     2.163     0.000     0.000     0.000     0.000     0.000     2.995     0.010     0.005 .00000E+00 0.000E+00 0.000E+00 0.000E+00 0.000E+00 0.000E+00
BIGSUB   0        0    0
BIGSUB   3        0    6.13769E+01    15.716    19.237    17.620    16.094   235.546    11.706     3.814    22.102    30.509    12.695     0.001     0.000     0.000     0.000     0.000     3.240     0.009     0.003 .00000E+00 0.000E+00 0.000E+00 0.000E+00 0.000E+00 0.000E+00
BIGSUB   0        0    0
BIGSUB   1        0    7.24803E+01    16.184    47.006    10.386     5.980   121.116    31.787     0.266    44.850    72.582     1.048     0.000     0.000     0.000     0.000     0.000    23.683     0.033     0.003 .00000E+00 0.000E+00 0.000E+00 0.000E+00 0.000E+00 0.000E+00
BIGSUB   0        0    0
BIGSUB   2        0    7.14730E+01    16.200    31.741     8.113     7.078   242.429    22.156     5.052    26.066    37.760    15.338     0.001     0.000     0.000     0.000     0.000     4.832     0.017     0.002 .00000E+00 0.000E+00 0.000E+00 0.000E+00 0.000E+00 0.000E+00
BIGSUB   0        0    0
BIGSUB   3        0    7.13769E+01    16.216    16.481    19.166    16.377   228.485     9.710     4.157    16.477    24.587    17.843     0.001     0.000     0.000     0.000     0.000     2.711     0.007     0.001 .00000E+00 0.000E+00 0.000E+00 0.000E+00 0.000E+00 0.000E+00
BIGSUB   0        0    0
BIGSUB   1        0    8.24803E+01    19.181    30.700     8.154     4.721   121.045    24.410     0.448    34.655    56.930     3.318     0.000     0.000     0.000     0.000     0.000    18.603     0.029     0.003 .00000E+00 0.000E+00 0.000E+00 0.000E+00 0.000E+00 0.000E+00
BIGSUB   0        0    0
BIGSUB   2        0    8.14730E+01    19.200    26.643     6.427     5.632   240.685    19.320     3.896    21.599    31.336    12.687     0.001     0.000     0.000     0.000     0.000     4.221     0.015     0.002 .00000E+00 0.000E+00 0.000E+00 0.000E+00 0.000E+00 0.000E+00
BIGSUB   0        0    0
BIGSUB   3        0    8.13769E+01    19.219     7.237    15.284    13.878   223.118     5.253     0.258    10.729    13.519     0.886     0.000     0.000     0.000     0.000     0.000     1.472     0.004     0.001 .00000E+00 0.000E+00 0.000E+00 0.000E+00 0.000E+00 0.000E+00
BIGSUB   0        0    0
BIGSUB   1        0    9.24803E+01    31.968    19.543     8.838     5.069   121.165    22.078     1.010    26.861    46.732     6.964     0.000     0.000     0.000     0.000     0.000    16.207     0.029     0.002 .00000E+00 0.000E+00 0.000E+00 0.000E+00 0.000E+00 0.000E+00
BIGSUB   0        0    0
BIGSUB   2        0    9.14730E+01    32.000    22.303     5.609     4.690   241.454    16.079     3.795    18.517    27.243    14.526     0.001     0.000     0.001     0.000     0.000     3.522     0.013     0.001 .00000E+00 0.000E+00 0.000E+00 0.000E+00 0.000E+00 0.000E+00
BIGSUB   0        0    0
BIGSUB   3        0    9.13769E+01    32.032    11.838    10.744     9.635   222.716     7.937     1.955     7.767    12.693     8.895     0.002     0.000     0.000     0.000     0.000     2.114     0.007     0.000 .00000E+00 0.000E+00 0.000E+00 0.000E+00 0.000E+00 0.000E+00
BIGSUB   0        0    0
BIGSUB   1        0   10.24803E+01    53.047    12.582     9.120     5.212   121.194    25.377     3.721    23.562    49.222    12.741     0.004     0.000     0.000     0.000     0.000    19.610     0.038     0.002 .00000E+00 0.000E+00 0.000E+00 0.000E+00 0.000E+00 0.000E+00
BIGSUB   0        0    0
BIGSUB   2        0   10.14730E+01    53.100    11.619     3.865     2.835   245.216     8.290     3.881    15.846    23.079    10.037     0.002     0.000     0.000     0.000     0.000     2.067     0.008     0.001 .00000E+00 0.000E+00 0.000E+00 0.000E+00 0.000E+00 0.000E+00
BIGSUB   0        0    0
BIGSUB   3        0   10.13769E+01    53.153    21.171     6.470     5.161   231.961     8.868     7.769     7.409    18.370    25.181     0.021     0.003     0.000     0.000     0.002     2.439     0.008     0.000 .00000E+00 0.000E+00 0.000E+00 0.000E+00 0.000E+00 0.000E+00
BIGSUB   0        0    0
BIGSUB   1        0   11.24803E+01    57.942    14.103    11.604     6.380   121.505    27.248     5.040    22.658    49.236    15.957     0.006     0.001     0.000     0.000     0.001    19.564     0.040     0.002 .00000E+00 0.000E+00 0.000E+00 0.000E+00 0.000E+00 0.000E+00
BIGSUB   0        0    0
BIGSUB   2        0   11.14730E+01    58.000    16.612     4.174     2.739   249.231    11.714     5.082    11.955    20.448    18.882     0.001     0.000     0.000     0.000     0.000     2.339     0.011     0.001 .00000E+00 0.000E+00 0.000E+00 0.000E+00 0.000E+00 0.000E+00
BIGSUB   0        0    0
BIGSUB   3        0   11.13769E+01    58.058    33.789     4.925     2.969   245.873     9.268    17.092     7.821    28.124    46.080     0.043     0.005     0.000     0.000     0.005     2.564     0.009     0.000 .00000E+00 0.000E+00 0.000E+00 0.000E+00 0.000E+00 0.000E+00
BIGSUB   0        0    0
BIGSUB   1        0   12.24803E+01   230.170    61.707     5.078     2.821   121.591   102.585    55.074    33.797   159.487   165.304     0.169     0.021     0.000     0.000     0.016    68.635     0.113     0.006 .00000E+00 0.000E+00 0.000E+00 0.000E+00 0.000E+00 0.000E+00
BIGSUB   0        0    0
BIGSUB   2        0   12.14730E+01   230.400    38.966     1.403     0.754   249.225    40.376    25.860    15.696    51.344    70.778     0.006     0.001     0.000     0.000     0.001     8.757     0.071     0.001 .00000E+00 0.000E+00 0.000E+00 0.000E+00 0.000E+00 0.000E+00
BIGSUB   0        0    0
BIGSUB   3        0   12.13769E+01   230.630    59.782     1.929     1.060   249.785    40.619    46.551    11.609    67.765   126.022     0.050     0.006     0.000     0.000     0.005     8.948     0.134     0.001 .00000E+00 0.000E+00 0.000E+00 0.000E+00 0.000E+00 0.000E+00
BIGSUB   0        0    0
BIGSUB   1        0 1983.24803E+01  1153.845   881.971   103.711    58.772   121.591   768.463   401.158   727.652  1711.691  1300.103    32.754     4.012     0.001     0.005     3.202   544.800     0.610     0.125 .00000E+00 0.000E+00 0.000E+00 0.000E+00 0.000E+00 0.000E+00
BIGSUB   0        0    0
BIGSUB   2        0 1983.14730E+01  1155.000   655.603    57.023    45.605   249.225   369.254   358.715   355.270   814.309  1093.174    32.061     3.929     0.003     0.002     3.138    82.038     0.829     0.110 .00000E+00 0.000E+00 0.000E+00 0.000E+00 0.000E+00 0.000E+00
BIGSUB   0        0    0
BIGSUB   3        0 1983.13769E+01  1156.155   439.867   112.556    96.148   249.785   255.274   321.753   239.561   637.833  1156.620    30.616     3.755     0.001     0.002     2.990    64.040     0.733     0.072 .00000E+00 0.000E+00 0.000E+00 0.000E+00 0.000E+00 0.000E+00
BIGSUB   0        0    0
BIGSUB   1        0    1.24803E+01   221.279   106.280     5.926     3.174   121.620   120.229    65.206    67.195   219.119   205.294    22.665     2.774     0.000     0.002     2.203    84.238     0.089     0.018 .00000E+00 0.000E+00 0.000E+00 0.000E+00 0.000E+00 0.000E+00
BIGSUB   0        0    0
BIGSUB   2        0    1.14730E+01   221.500    98.307     1.654     0.888   249.231    51.464    68.217    27.770   108.460   214.446    26.963     3.304     0.000     0.001     2.617    11.297     0.074     0.004 .00000E+00 0.000E+00 0.000E+00 0.000E+00 0.000E+00 0.000E+00
BIGSUB   0        0    0
BIGSUB   3        0    1.13769E+01   221.721    47.968     2.280     1.250   249.802    39.391    38.240    24.829    73.611   124.380    23.356     2.861     0.000     0.001     2.256     9.675     0.105     0.007 .00000E+00 0.000E+00 0.000E+00 0.000E+00 0.000E+00 0.000E+00
BIGSUB   0        0    0
BIGSUB   1        0    2.24803E+01   421.778   343.069     4.119     2.273   121.660   200.860   318.002    97.205   550.539  1006.822     7.586     0.937     0.000     0.004     0.742   132.201     0.084     0.027 .00000E+00 0.000E+00 0.000E+00 0.000E+00 0.000E+00 0.000E+00
BIGSUB   0        0    0
BIGSUB   2        0    2.14730E+01   422.200    96.048     1.151     0.638   249.231    54.777    95.672    37.012   146.237   327.768     2.286     0.282     0.000     0.000     0.232    12.199     0.076     0.007 .00000E+00 0.000E+00 0.000E+00 0.000E+00 0.000E+00 0.000E+00
BIGSUB   0        0    0
BIGSUB   3        0    2.13769E+01   422.622    59.509     1.627     0.927   249.801    47.556    75.717    31.742   119.969   312.655     4.418     0.543     0.000     0.000     0.443    11.450     0.099     0.010 .00000E+00 0.000E+00 0.000E+00 0.000E+00 0.000E+00 0.000E+00
BIGSUB   0        0    0
BIGSUB   1        0    3.24803E+01   239.960   405.733    11.629     6.170   121.638   196.970   253.170   152.559   545.784   685.235     1.170     0.146     0.000     0.002     0.106   135.336     0.060     0.035 .00000E+00 0.000E+00 0.000E+00 0.000E+00 0.000E+00 0.000E+00
BIGSUB   0        0    0
BIGSUB   2        0    3.14730E+01   240.200   121.284     3.311     1.761   249.232    54.488    92.319    47.774   153.979   280.783     0.357     0.048     0.000     0.000     0.036    12.131     0.052     0.009 .00000E+00 0.000E+00 0.000E+00 0.000E+00 0.000E+00 0.000E+00
BIGSUB   0        0    0
BIGSUB   3        0    3.13769E+01   240.440   110.044     6.612     4.862   249.802    49.709    89.319    41.458   144.209   321.450     2.231     0.274     0.000     0.000     0.226    12.001     0.081     0.012 .00000E+00 0.000E+00 0.000E+00 0.000E+00 0.000E+00 0.000E+00
BIGSUB   0        0    0
BIGSUB   1        0    4.24803E+01    86.713   179.182    10.349     5.811   121.537   114.432    48.449   157.813   293.656   144.511     0.095     0.012     0.000     0.000     0.009    81.764     0.040     0.026 .00000E+00 0.000E+00 0.000E+00 0.000E+00 0.000E+00 0.000E+00
BIGSUB   0        0    0
BIGSUB   2        0    4.14730E+01    86.800   136.331     4.833     3.710   248.800    49.045    88.689    48.143   149.712   282.182     0.137     0.017     0.000     0.000     0.014    10.953     0.032     0.007 .00000E+00 0.000E+00 0.000E+00 0.000E+00 0.000E+00 0.000E+00
BIGSUB   0        0    0
BIGSUB   3        0    4.13769E+01    86.887    90.931    11.346    10.121   248.135    31.825    63.092    41.194   114.383   259.127     0.111     0.014     0.000     0.000     0.012     8.495     0.035     0.009 .00000E+00 0.000E+00 0.000E+00 0.000E+00 0.000E+00 0.000E+00
BIGSUB   0        0    0
BIGSUB   1        0    5.24803E+01    34.965   127.953    16.731     9.256   121.255    75.724    22.213   138.589   223.696    55.277     0.023     0.003     0.000     0.000     0.002    56.750     0.032     0.017 .00000E+00 0.000E+00 0.000E+00 0.000E+00 0.000E+00 0.000E+00
BIGSUB   0        0    0
BIGSUB   2        0    5.14730E+01    35.000    89.429     9.963     8.194   247.450    38.882    44.370    47.897   103.104   141.966     0.023     0.003     0.000     0.000     0.002     8.707     0.016     0.005 .00000E+00 0.000E+00 0.000E+00 0.000E+00 0.000E+00 0.000E+00
BIGSUB   0        0    0
BIGSUB   3        0    5.13769E+01    35.035    39.833    21.615    20.262   241.787    16.513    18.028    35.629    60.002    63.502     0.011     0.001     0.000     0.000     0.001     4.647     0.008     0.004 .00000E+00 0.000E+00 0.000E+00 0.000E+00 0.000E+00 0.000E+00
BIGSUB   0        0    0
BIGSUB   1        0    6.24803E+01    25.275    13.882     8.530     5.015   121.267    16.504     0.110    91.832   110.504     0.482     0.000     0.000     0.000     0.000     0.000    13.011     0.012     0.007 .00000E+00 0.000E+00 0.000E+00 0.000E+00 0.000E+00 0.000E+00
BIGSUB   0        0    0
BIGSUB   2        0    6.14730E+01    25.300    18.272     6.613     5.774   245.819    13.502     3.492    38.125    46.942     9.613     0.002     0.000     0.000     0.000     0.000     3.294     0.006     0.003 .00000E+00 0.000E+00 0.000E+00 0.000E+00 0.000E+00 0.000E+00
BIGSUB   0        0    0
BIGSUB   3        0    6.13769E+01    25.325    15.485    15.701    14.969   237.784     9.273     2.172    23.861    30.129     9.143     0.004     0.000     0.000     0.000     0.000     2.585     0.005     0.002 .00000E+00 0.000E+00 0.000E+00 0.000E+00 0.000E+00 0.000E+00
BIGSUB   0        0    0
BIGSUB   1        0    7.24803E+01     7.592    12.158    15.441     8.375   121.158     5.966     0.001    52.268    62.546     0.002     0.000     0.000     0.000     0.000     0.000     5.464     0.007     0.002 .00000E+00 0.000E+00 0.000E+00 0.000E+00 0.000E+00 0.000E+00
BIGSUB   0        0    0
BIGSUB   2        0    7.14730E+01     7.600     6.061     8.470     6.689   242.846     4.358     0.049    25.389    28.337     0.328     0.000     0.000     0.000     0.000     0.000     1.041     0.002     0.001 .00000E+00 0.000E+00 0.000E+00 0.000E+00 0.000E+00 0.000E+00
BIGSUB   0        0    0
BIGSUB   3        0    7.13769E+01     7.608    12.872    17.866    15.728   229.565     8.203     1.151    16.023    20.777     4.030     0.000     0.000     0.000     0.000     0.000     2.256     0.005     0.001 .00000E+00 0.000E+00 0.000E+00 0.000E+00 0.000E+00 0.000E+00
BIGSUB   0        0    0
BIGSUB   1        0    8.24803E+01    15.984    21.285    13.336     7.360   121.101    15.260     0.045    27.537    43.498     0.293     0.000     0.000     0.000     0.000     0.000    12.086     0.021     0.001 .00000E+00 0.000E+00 0.000E+00 0.000E+00 0.000E+00 0.000E+00
BIGSUB   0        0    0
BIGSUB   2        0    8.14730E+01    16.000    11.556     7.454     5.781   241.113     9.022     0.517    14.532    18.647     2.111     0.003     0.000     0.000     0.000     0.000     2.062     0.006     0.000 .00000E+00 0.000E+00 0.000E+00 0.000E+00 0.000E+00 0.000E+00
BIGSUB   0        0    0
BIGSUB   3        0    8.13769E+01    16.016    17.227    15.903    13.501   224.138    10.401     2.711    10.685    17.396    13.431     0.001     0.000     0.000     0.000     0.000     2.864     0.007     0.000 .00000E+00 0.000E+00 0.000E+00 0.000E+00 0.000E+00 0.000E+00
BIGSUB   0        0    0
BIGSUB   1        0    9.24803E+01    15.584    19.032    12.305     6.799   121.076    14.632     0.129    17.715    31.593     0.463     0.000     0.000     0.000     0.000     0.000    10.806     0.022     0.001 .00000E+00 0.000E+00 0.000E+00 0.000E+00 0.000E+00 0.000E+00
BIGSUB   0        0    0
BIGSUB   2        0    9.14730E+01    15.600    14.104     7.419     6.071   239.332    10.155     1.175    10.142    14.628     3.393     0.039     0.005     0.000     0.000     0.004     2.089     0.007     0.000 .00000E+00 0.000E+00 0.000E+00 0.000E+00 0.000E+00 0.000E+00
BIGSUB   0        0    0
BIGSUB   3        0    9.13769E+01    15.616    16.203    15.156    13.031   218.638     9.437     2.868     9.336    15.658     9.482     0.002     0.000     0.000     0.000     0.000     2.514     0.006     0.000 .00000E+00 0.000E+00 0.000E+00 0.000E+00 0.000E+00 0.000E+00
BIGSUB   0        0    0
BIGSUB   1        0   10.24803E+01    84.416    25.860    10.458     5.810   121.543    43.617     7.051    18.222    58.600    21.830     0.003     0.001     0.000     0.000     0.000    30.845     0.063     0.001 .00000E+00 0.000E+00 0.000E+00 0.000E+00 0.000E+00 0.000E+00
BIGSUB   0        0    0
BIGSUB   2        0   10.14730E+01    84.500    32.102     3.722     2.333   244.362    22.189    12.015    10.489    28.321    34.314     0.190     0.023     0.000     0.000     0.019     4.745     0.017     0.000 .00000E+00 0.000E+00 0.000E+00 0.000E+00 0.000E+00 0.000E+00
BIGSUB   0        0    0
BIGSUB   3        0   10.13769E+01    84.585    35.063     8.637     7.313   235.449     9.025    16.381     9.449    29.233    52.255     0.172     0.021     0.000     0.000     0.018     2.556     0.007     0.000 .00000E+00 0.000E+00 0.000E+00 0.000E+00 0.000E+00 0.000E+00
BIGSUB   0        0    0
BIGSUB   1        0   11.24803E+01   136.863    64.323     7.998     4.390   121.594    75.843    31.337    30.406   115.767   118.567     0.057     0.007     0.000     0.000     0.005    51.804     0.084     0.005 .00000E+00 0.000E+00 0.000E+00 0.000E+00 0.000E+00 0.000E+00
BIGSUB   0        0    0
BIGSUB   2        0   11.14730E+01   137.000    33.828     2.220     1.173   249.164    28.007    15.956    16.484    39.622    49.737     0.189     0.023     0.000     0.000     0.019     6.175     0.020     0.001 .00000E+00 0.000E+00 0.000E+00 0.000E+00 0.000E+00 0.000E+00
BIGSUB   0        0    0
BIGSUB   3        0   11.13769E+01   137.137    21.568     3.025     1.627   249.801    11.163    18.441     8.359    30.007    52.265     0.079     0.010     0.000     0.000     0.008     2.487     0.014     0.000 .00000E+00 0.000E+00 0.000E+00 0.000E+00 0.000E+00 0.000E+00
BIGSUB   0        0    0
BIGSUB   1        0   12.24803E+01   189.211   136.026     4.429     2.456   121.579   122.652    67.361    61.419   217.295   147.070     0.171     0.022     0.000     0.000     0.012    85.902     0.084     0.015 .00000E+00 0.000E+00 0.000E+00 0.000E+00 0.000E+00 0.000E+00
BIGSUB   0        0    0
BIGSUB   2        0   12.14730E+01   189.400    62.783     1.212     0.649   249.208    43.411    39.459    24.829    74.981    95.023     0.340     0.042     0.000     0.000     0.035     9.561     0.056     0.002 .00000E+00 0.000E+00 0.000E+00 0.000E+00 0.000E+00 0.000E+00
BIGSUB   0        0    0
BIGSUB   3        0   12.13769E+01   189.589    68.728     1.664     0.910   249.732    42.382    50.471    14.124    75.360   126.500     0.070     0.009     0.000     0.000     0.007    10.016     0.080     0.001 .00000E+00 0.000E+00 0.000E+00 0.000E+00 0.000E+00 0.000E+00
BIGSUB   0        0    0
BIGSUB   1        0 1984.24803E+01  1479.619  1454.782   121.251    66.887   121.579  1002.688   813.072   912.760  2472.596  2385.846    31.772     3.902     0.001     0.008     3.080   700.208     0.599     0.156 .00000E+00 0.000E+00 0.000E+00 0.000E+00 0.000E+00 0.000E+00
BIGSUB   0        0    0
BIGSUB   2        0 1984.14730E+01  1481.100   720.105    58.023    43.660   249.208   379.300   461.931   348.585   912.969  1441.663    30.529     3.747     0.000     0.002     2.978    84.254     0.365     0.040 .00000E+00 0.000E+00 0.000E+00 0.000E+00 0.000E+00 0.000E+00
BIGSUB   0        0    0
BIGSUB   3        0 1984.13769E+01  1482.581   535.432   121.432   104.500   249.732   284.877   378.591   266.691   730.734  1348.219    30.456     3.734     0.000     0.002     2.973    71.545     0.452     0.048 .00000E+00 0.000E+00 0.000E+00 0.000E+00 0.000E+00 0.000E+00
BIGSUB   0        0    0
BIGSUB   1        0    1.24803E+01   168.332   153.613     3.460     1.916   121.622   126.278    64.073    90.555   245.692   190.794    20.635     2.527     0.000     0.002     2.005    87.785     0.068     0.021 .00000E+00 0.000E+00 0.000E+00 0.000E+00 0.000E+00 0.000E+00
BIGSUB   0        0    0
BIGSUB   2        0    1.14730E+01   168.500    85.129     0.957     0.534   249.231    47.689    53.338    34.027    99.241   154.701    27.214     3.334     0.000     0.001     2.632    10.542     0.050     0.004 .00000E+00 0.000E+00 0.000E+00 0.000E+00 0.000E+00 0.000E+00
BIGSUB   0        0    0
BIGSUB   3        0    1.13769E+01   168.669   100.753     1.365     0.784   249.802    52.754    68.350    28.339   110.090   200.141    28.204     3.455     0.000     0.002     2.733    12.416     0.085     0.006 .00000E+00 0.000E+00 0.000E+00 0.000E+00 0.000E+00 0.000E+00
BIGSUB   0        0    0
BIGSUB   1        0    2.24803E+01   204.695   150.207     5.318     2.890   121.647   125.808    88.145    96.320   274.384   252.392     5.940     0.730     0.000     0.001     0.581    86.366     0.057     0.019 .00000E+00 0.000E+00 0.000E+00 0.000E+00 0.000E+00 0.000E+00
BIGSUB   0        0    0
BIGSUB   2        0    2.14730E+01   204.900    91.478     1.492     0.814   249.231    46.474    66.214    36.268   114.188   217.239     1.668     0.204     0.000     0.000     0.178    10.301     0.040     0.005 .00000E+00 0.000E+00 0.000E+00 0.000E+00 0.000E+00 0.000E+00
BIGSUB   0        0    0
BIGSUB   3        0    2.13769E+01   205.105    65.497     2.089     1.167   249.802    40.358    51.582    34.843    97.512   177.406     1.098     0.135     0.000     0.000     0.118     9.922     0.048     0.007 .00000E+00 0.000E+00 0.000E+00 0.000E+00 0.000E+00 0.000E+00
BIGSUB   0        0    0
BIGSUB   1        0    3.24803E+01   188.112   175.942    13.210     6.983   121.651   136.790    82.917   119.395   302.052   239.633     1.617     0.201     0.000     0.000     0.160    95.163     0.055     0.021 .00000E+00 0.000E+00 0.000E+00 0.000E+00 0.000E+00 0.000E+00
BIGSUB   0        0    0
BIGSUB   2        0    3.14730E+01   188.300    85.308     3.945     2.073   249.231    47.828    56.214    43.837   112.398   171.928     0.412     0.052     0.000     0.000     0.042    10.585     0.035     0.005 .00000E+00 0.000E+00 0.000E+00 0.000E+00 0.000E+00 0.000E+00
BIGSUB   0        0    0
BIGSUB   3        0    3.13769E+01   188.488    73.207     8.564     7.195   249.801    41.980    51.725    41.207   104.590   173.024     0.615     0.076     0.000     0.000     0.065    10.130     0.042     0.007 .00000E+00 0.000E+00 0.000E+00 0.000E+00 0.000E+00 0.000E+00
BIGSUB   0        0    0
BIGSUB   1        0    4.24803E+01    74.026   191.250     8.117     4.699   121.568   115.422    49.629   121.826   259.402   124.110     0.379     0.047     0.000     0.000     0.037    82.971     0.045     0.019 .00000E+00 0.000E+00 0.000E+00 0.000E+00 0.000E+00 0.000E+00
BIGSUB   0        0    0
BIGSUB   2        0    4.14730E+01    74.100    69.602     3.476     2.537   249.131    38.868    32.769    43.155    86.625   110.098     0.109     0.014     0.000     0.000     0.011     8.842     0.025     0.004 .00000E+00 0.000E+00 0.000E+00 0.000E+00 0.000E+00 0.000E+00
BIGSUB   0        0    0
BIGSUB   3        0    4.13769E+01    74.174    58.185    11.296    10.502   249.504    27.285    30.368    38.033    77.341   119.499     0.059     0.007     0.000     0.000     0.006     7.326     0.022     0.005 .00000E+00 0.000E+00 0.000E+00 0.000E+00 0.000E+00 0.000E+00
BIGSUB   0        0    0
BIGSUB   1        0    5.24803E+01    21.479   109.009     9.453     5.433   121.141    62.039    16.938   116.640   186.624    46.429     0.056     0.007     0.000     0.000     0.006    47.650     0.028     0.015 .00000E+00 0.000E+00 0.000E+00 0.000E+00 0.000E+00 0.000E+00
BIGSUB   0        0    0
BIGSUB   2        0    5.14730E+01    21.500    63.340     6.451     5.521   248.071    33.153    24.077    41.055    74.712    64.686     0.011     0.001     0.000     0.000     0.001     7.603     0.015     0.003 .00000E+00 0.000E+00 0.000E+00 0.000E+00 0.000E+00 0.000E+00
BIGSUB   0        0    0
BIGSUB   3        0    5.13769E+01    21.521    34.877    14.835    14.046   244.566    14.926    15.272    31.982    53.153    59.799     0.003     0.000     0.000     0.000     0.000     4.244     0.007     0.003 .00000E+00 0.000E+00 0.000E+00 0.000E+00 0.000E+00 0.000E+00
BIGSUB   0        0    0
BIGSUB   1        0    6.24803E+01    15.185     8.246     8.789     5.117   121.137     9.025     0.000    76.489    88.335     0.000     0.000     0.000     0.000     0.000     0.000     7.020     0.007     0.006 .00000E+00 0.000E+00 0.000E+00 0.000E+00 0.000E+00 0.000E+00
BIGSUB   0        0    0
BIGSUB   2        0    6.14730E+01    15.200     8.441     6.718     5.835   245.508     7.640     0.033    31.467    35.050     0.082     0.000     0.000     0.000     0.000     0.000     1.721     0.004     0.002 .00000E+00 0.000E+00 0.000E+00 0.000E+00 0.000E+00 0.000E+00
BIGSUB   0        0    0
BIGSUB   3        0    6.13769E+01    15.215    11.333    15.870    15.109   238.020     7.310     0.891    20.901    25.218     3.077     0.000     0.000     0.000     0.000     0.000     1.985     0.004     0.001 .00000E+00 0.000E+00 0.000E+00 0.000E+00 0.000E+00 0.000E+00
BIGSUB   0        0    0
BIGSUB   1        0    7.24803E+01     8.591     8.920    10.392     5.903   120.636     6.506     0.000    41.774    51.056     0.000     0.000     0.000     0.000     0.000     0.000     5.151     0.008     0.002 .00000E+00 0.000E+00 0.000E+00 0.000E+00 0.000E+00 0.000E+00
BIGSUB   0        0    0
BIGSUB   2        0    7.14730E+01     8.600     6.873     7.449     5.558   243.063     5.676     0.057    19.858    22.783     0.174     0.000     0.000     0.000     0.000     0.000     1.238     0.003     0.001 .00000E+00 0.000E+00 0.000E+00 0.000E+00 0.000E+00 0.000E+00
BIGSUB   0        0    0
BIGSUB   3        0    7.13769E+01     8.609     9.885    17.231    14.413   230.720     6.585     0.911    13.498    17.450     3.678     0.000     0.000     0.000     0.000     0.000     1.780     0.004     0.000 .00000E+00 0.000E+00 0.000E+00 0.000E+00 0.000E+00 0.000E+00
BIGSUB   0        0    0
BIGSUB   1        0    8.24803E+01    14.885    26.586    10.345     5.811   121.094    18.530     0.284    23.331    40.976     1.667     0.000     0.000     0.000     0.000     0.000    14.073     0.025     0.001 .00000E+00 0.000E+00 0.000E+00 0.000E+00 0.000E+00 0.000E+00
BIGSUB   0        0    0
BIGSUB   2        0    8.14730E+01    14.900    16.555     6.977     5.364   241.468    12.508     1.490    12.522    18.160     5.585     0.002     0.000     0.000     0.000     0.000     2.801     0.009     0.000 .00000E+00 0.000E+00 0.000E+00 0.000E+00 0.000E+00 0.000E+00
BIGSUB   0        0    0
BIGSUB   3        0    8.13769E+01    14.915    19.433    16.572    13.634   224.957    11.422     4.202     9.184    17.567    18.008     0.004     0.001     0.000     0.000     0.000     3.129     0.008     0.000 .00000E+00 0.000E+00 0.000E+00 0.000E+00 0.000E+00 0.000E+00
BIGSUB   0        0    0
BIGSUB   1        0    9.24803E+01    26.374    16.336    13.549     7.505   121.123    16.559     0.161    17.743    33.404     0.407     0.000     0.000     0.000     0.000     0.000    12.930     0.025     0.001 .00000E+00 0.000E+00 0.000E+00 0.000E+00 0.000E+00 0.000E+00
BIGSUB   0        0    0
BIGSUB   2        0    9.14730E+01    26.400     9.516     6.874     5.347   240.983     7.698     0.553    10.625    14.010     2.002     0.011     0.001     0.000     0.000     0.001     1.728     0.006     0.000 .00000E+00 0.000E+00 0.000E+00 0.000E+00 0.000E+00 0.000E+00
BIGSUB   0        0    0
BIGSUB   3        0    9.13769E+01    26.426    20.375    15.920    14.483   223.471     9.669     3.527     9.205    16.281    14.166     0.020     0.003     0.000     0.000     0.002     2.667     0.007     0.000 .00000E+00 0.000E+00 0.000E+00 0.000E+00 0.000E+00 0.000E+00
BIGSUB   0        0    0
BIGSUB   1        0   10.24803E+01    44.955    12.147    11.771     6.326   120.988    20.444     4.288    16.617    37.547    16.260     0.024     0.003     0.000     0.000     0.002    14.460     0.032     0.001 .00000E+00 0.000E+00 0.000E+00 0.000E+00 0.000E+00 0.000E+00
BIGSUB   0        0    0
BIGSUB   2        0   10.14730E+01    45.000    18.437     5.014     3.597   242.486    14.545     3.323     9.919    17.283    11.555     0.109     0.013     0.000     0.000     0.011     3.067     0.011     0.000 .00000E+00 0.000E+00 0.000E+00 0.000E+00 0.000E+00 0.000E+00
BIGSUB   0        0    0
BIGSUB   3        0   10.13769E+01    45.045    23.745    10.226     9.016   227.767     9.297     8.220     9.412    20.957    31.667     0.090     0.011     0.000     0.000     0.010     2.522     0.007     0.001 .00000E+00 0.000E+00 0.000E+00 0.000E+00 0.000E+00 0.000E+00
BIGSUB   0        0    0
BIGSUB   1        0   11.24803E+01    69.730    51.868    12.289     6.689   121.566    47.459    16.091    19.718    72.322    43.340     0.066     0.008     0.000     0.000     0.007    34.684     0.070     0.002 .00000E+00 0.000E+00 0.000E+00 0.000E+00 0.000E+00 0.000E+00
BIGSUB   0        0    0
BIGSUB   2        0   11.14730E+01    69.800    44.686     3.862     2.321   247.407    26.500    15.507    12.933    35.051    38.214     0.594     0.073     0.000     0.000     0.060     5.732     0.020     0.001 .00000E+00 0.000E+00 0.000E+00 0.000E+00 0.000E+00 0.000E+00
BIGSUB   0        0    0
BIGSUB   3        0   11.13769E+01    69.870    32.376     6.080     3.879   244.334     6.995    16.541     8.710    27.904    57.786     0.107     0.013     0.000     0.000     0.012     1.958     0.005     0.000 .00000E+00 0.000E+00 0.000E+00 0.000E+00 0.000E+00 0.000E+00
BIGSUB   0        0    0
BIGSUB   1        0   12.24803E+01   163.636   103.969     3.694     2.108   121.641   104.789    45.149    40.559   158.477   179.056     0.247     0.031     0.000     0.000     0.023    70.771     0.105     0.009 .00000E+00 0.000E+00 0.000E+00 0.000E+00 0.000E+00 0.000E+00
BIGSUB   0        0    0
BIGSUB   2        0   12.14730E+01   163.800    54.156     1.036     0.573   249.231    39.825    29.403    21.181    60.318    89.120     0.462     0.057     0.000     0.000     0.047     8.752     0.046     0.002 .00000E+00 0.000E+00 0.000E+00 0.000E+00 0.000E+00 0.000E+00
BIGSUB   0        0    0
BIGSUB   3        0   12.13769E+01   163.964    38.684     1.462     0.830   249.802    28.608    27.908     9.985    45.040    94.811     0.063     0.008     0.000     0.000     0.007     6.482     0.043     0.001 .00000E+00 0.000E+00 0.000E+00 0.000E+00 0.000E+00 0.000E+00
BIGSUB   0        0    0
BIGSUB   1        0 1985.24803E+01   999.999  1008.092   110.386    61.381   121.641   789.649   367.675   780.968  1750.271  1094.087    28.965     3.555     0.001     0.003     2.821   559.025     0.526     0.116 .00000E+00 0.000E+00 0.000E+00 0.000E+00 0.000E+00 0.000E+00
BIGSUB   0        0    0
BIGSUB   2        0 1985.14730E+01  1001.000   553.520    54.250    40.075   249.231   328.402   282.980   316.848   689.819   865.384    30.592     3.750     0.000     0.002     2.984    72.913     0.263     0.028 .00000E+00 0.000E+00 0.000E+00 0.000E+00 0.000E+00 0.000E+00
BIGSUB   0        0    0
BIGSUB   3        0 1985.13769E+01  1002.001   488.351   121.510   105.058   249.802   257.188   279.495   255.299   613.103   953.063    30.263     3.709     0.000     0.002     2.953    64.561     0.283     0.032 .00000E+00 0.000E+00 0.000E+00 0.000E+00 0.000E+00 0.000E+00
BIGSUB   0        0    0
BIGSUB   1        0    1.24803E+01   297.103   155.219     4.896     2.670   121.640   154.278   113.691    76.318   297.740   363.318    26.563     3.251     0.000     0.002     2.588   105.107     0.095     0.021 .00000E+00 0.000E+00 0.000E+00 0.000E+00 0.000E+00 0.000E+00
BIGSUB   0        0    0
BIGSUB   2        0    1.14730E+01   297.400    88.333     1.376     0.756   249.232    52.832    70.544    30.898   114.124   237.096    27.655     3.388     0.000     0.001     2.681    11.501     0.056     0.004 .00000E+00 0.000E+00 0.000E+00 0.000E+00 0.000E+00 0.000E+00
BIGSUB   0        0    0
BIGSUB   3        0    1.13769E+01   297.697   118.196     1.920     1.082   249.802    57.933   105.144    22.556   141.927   327.381    29.930     3.667     0.000     0.002     2.909    13.398     0.080     0.003 .00000E+00 0.000E+00 0.000E+00 0.000E+00 0.000E+00 0.000E+00
BIGSUB   0        0    0
BIGSUB   1        0    2.24803E+01   329.770   323.075     3.168     1.802   121.661   183.350   259.235   105.908   491.418   838.157     2.993     0.368     0.000     0.002     0.295   122.978     0.068     0.028 .00000E+00 0.000E+00 0.000E+00 0.000E+00 0.000E+00 0.000E+00
BIGSUB   0        0    0
BIGSUB   2        0    2.14730E+01   330.100    88.379     0.862     0.494   249.231    50.053    79.298    37.115   128.987   277.444     1.472     0.181     0.000     0.000     0.154    11.252     0.042     0.005 .00000E+00 0.000E+00 0.000E+00 0.000E+00 0.000E+00 0.000E+00
BIGSUB   0        0    0
BIGSUB   3        0    2.13769E+01   330.430    57.233     1.256     0.742   249.802    42.426    63.401    33.343   108.281   240.882     0.112     0.016     0.000     0.000     0.017    10.485     0.044     0.006 .00000E+00 0.000E+00 0.000E+00 0.000E+00 0.000E+00 0.000E+00
BIGSUB   0        0    0
BIGSUB   1        0    3.24803E+01   175.824   284.508    10.655     5.634   121.560   162.845   140.356   152.942   412.980   424.493     0.438     0.054     0.000     0.001     0.039   114.774     0.051     0.032 .00000E+00 0.000E+00 0.000E+00 0.000E+00 0.000E+00 0.000E+00
BIGSUB   0        0    0
BIGSUB   2        0    3.14730E+01   176.000   111.085     3.492     2.038   248.899    51.790    75.324    46.904   135.488   252.376     0.163     0.021     0.000     0.000     0.017    11.516     0.034     0.006 .00000E+00 0.000E+00 0.000E+00 0.000E+00 0.000E+00 0.000E+00
BIGSUB   0        0    0
BIGSUB   3        0    3.13769E+01   176.176    80.227     6.961     5.547   248.836    41.602    57.241    41.216   110.275   216.131     0.033     0.005     0.000     0.000     0.005    10.377     0.036     0.006 .00000E+00 0.000E+00 0.000E+00 0.000E+00 0.000E+00 0.000E+00
BIGSUB   0        0    0
BIGSUB   1        0    4.24803E+01   131.568   171.018    10.504     6.050   121.658   121.523    60.960   147.198   297.546   240.570     0.096     0.012     0.000     0.000     0.008    83.817     0.042     0.022 .00000E+00 0.000E+00 0.000E+00 0.000E+00 0.000E+00 0.000E+00
BIGSUB   0        0    0
BIGSUB   2        0    4.14730E+01   131.700   126.718     5.602     4.448   249.231    47.976    86.187    47.417   146.322   331.718     0.410     0.050     0.000     0.000     0.041    10.811     0.026     0.005 .00000E+00 0.000E+00 0.000E+00 0.000E+00 0.000E+00 0.000E+00
BIGSUB   0        0    0
BIGSUB   3        0    4.13769E+01   131.832    84.063    13.960    13.073   249.802    32.307    59.911    39.431   109.181   245.826     0.048     0.006     0.000     0.000     0.007     8.262     0.023     0.005 .00000E+00 0.000E+00 0.000E+00 0.000E+00 0.000E+00 0.000E+00
BIGSUB   0        0    0
BIGSUB   1        0    5.24803E+01    36.563   158.224    17.828     9.891   120.802    89.563    29.946   133.788   237.384    75.867     0.048     0.006     0.000     0.000     0.004    67.608     0.036     0.017 .00000E+00 0.000E+00 0.000E+00 0.000E+00 0.000E+00 0.000E+00
BIGSUB   0        0    0
BIGSUB   2        0    5.14730E+01    36.600    80.661     9.985     8.095   247.364    38.890    36.467    46.419    93.651   106.973     0.023     0.003     0.000     0.000     0.002     8.672     0.016     0.004 .00000E+00 0.000E+00 0.000E+00 0.000E+00 0.000E+00 0.000E+00
BIGSUB   0        0    0
BIGSUB   3        0    5.13769E+01    36.637    49.693    21.791    20.305   241.234    19.981    25.911    34.779    68.004    90.390     0.004     0.001     0.000     0.000     0.000     5.645     0.011     0.003 .00000E+00 0.000E+00 0.000E+00 0.000E+00 0.000E+00 0.000E+00
BIGSUB   0        0    0
BIGSUB   1        0    6.24803E+01    12.388    32.653    14.852     8.311   120.973    19.999     0.022    95.698   117.168     0.072     0.000     0.000     0.000     0.000     0.000    15.886     0.013     0.008 .00000E+00 0.000E+00 0.000E+00 0.000E+00 0.000E+00 0.000E+00
BIGSUB   0        0    0
BIGSUB   2        0    6.14730E+01    12.400    28.108     9.266     7.747   244.288    18.495     5.140    38.360    49.850    13.743     0.002     0.000     0.000     0.000     0.000     4.340     0.008     0.003 .00000E+00 0.000E+00 0.000E+00 0.000E+00 0.000E+00 0.000E+00
BIGSUB   0        0    0
BIGSUB   3        0    6.13769E+01    12.412    20.680    20.412    17.016   233.322    12.278     4.645    24.707    34.186    17.284     0.000     0.000     0.000     0.000     0.000     3.325     0.006     0.001 .00000E+00 0.000E+00 0.000E+00 0.000E+00 0.000E+00 0.000E+00
BIGSUB   0        0    0
BIGSUB   1        0    7.24803E+01    18.981    17.539    13.818     7.748   120.170    14.925     0.024    58.050    74.908     0.092     0.000     0.000     0.000     0.000     0.000    11.926     0.014     0.003 .00000E+00 0.000E+00 0.000E+00 0.000E+00 0.000E+00 0.000E+00
BIGSUB   0        0    0
BIGSUB   2        0    7.14730E+01    19.000     9.083     8.577     6.948   241.966     7.442     0.356    27.605    31.604     1.137     0.001     0.000     0.000     0.000     0.000     1.763     0.004     0.001 .00000E+00 0.000E+00 0.000E+00 0.000E+00 0.000E+00 0.000E+00
BIGSUB   0        0    0
BIGSUB   3        0    7.13769E+01    19.019    15.470    18.838    16.128   226.945     9.549     2.286    17.858    24.174     9.633     0.000     0.000     0.000     0.000     0.000     2.657     0.005     0.001 .00000E+00 0.000E+00 0.000E+00 0.000E+00 0.000E+00 0.000E+00
BIGSUB   0        0    0
BIGSUB   1        0    8.24803E+01    29.670    29.754    12.765     7.167   120.254    24.906     2.358    34.168    59.366    19.265     0.003     0.000     0.000     0.000     0.000    18.845     0.028     0.002 .00000E+00 0.000E+00 0.000E+00 0.000E+00 0.000E+00 0.000E+00
BIGSUB   0        0    0
BIGSUB   2        0    8.14730E+01    29.700    18.275     8.000     6.197   240.191    14.800     2.174    17.326    24.310     9.493     0.017     0.002     0.000     0.000     0.002     3.217     0.008     0.001 .00000E+00 0.000E+00 0.000E+00 0.000E+00 0.000E+00 0.000E+00
BIGSUB   0        0    0
BIGSUB   3        0    8.13769E+01    29.730    20.932    17.832    15.300   222.180    11.446     6.152    12.198    22.637    35.037     0.006     0.001     0.000     0.000     0.001     3.110     0.007     0.001 .00000E+00 0.000E+00 0.000E+00 0.000E+00 0.000E+00 0.000E+00
BIGSUB   0        0    0
BIGSUB   1        0    9.24803E+01    31.269    22.318    12.948     7.255   121.189    21.400     0.702    26.164    45.998     4.016     0.000     0.000     0.000     0.000     0.000    15.947     0.025     0.002 .00000E+00 0.000E+00 0.000E+00 0.000E+00 0.000E+00 0.000E+00
BIGSUB   0        0    0
BIGSUB   2        0    9.14730E+01    31.300    18.378     7.702     6.315   240.497    13.211     1.901    14.027    20.078     7.185     0.070     0.009     0.000     0.000     0.007     2.828     0.008     0.001 .00000E+00 0.000E+00 0.000E+00 0.000E+00 0.000E+00 0.000E+00
BIGSUB   0        0    0
BIGSUB   3        0    9.13769E+01    31.331    14.332    14.173    12.898   220.219     7.754     2.485    10.429    16.037    10.701     0.002     0.000     0.000     0.000     0.000     2.138     0.005     0.000 .00000E+00 0.000E+00 0.000E+00 0.000E+00 0.000E+00 0.000E+00
BIGSUB   0        0    0
BIGSUB   1        0   10.24803E+01    50.450    19.545     8.285     4.808   121.068    29.459     1.876    24.340    51.560    10.602     0.000     0.000     0.000     0.000     0.000    22.595     0.040     0.002 .00000E+00 0.000E+00 0.000E+00 0.000E+00 0.000E+00 0.000E+00
BIGSUB   0        0    0
BIGSUB   2        0   10.14730E+01    50.500    30.455     4.472     3.542   244.024    20.669     6.867    14.247    26.845    27.088     0.221     0.027     0.000     0.000     0.022     4.531     0.014     0.001 .00000E+00 0.000E+00 0.000E+00 0.000E+00 0.000E+00 0.000E+00
BIGSUB   0        0    0
BIGSUB   3        0   10.13769E+01    50.550    23.091     5.151     3.793   232.074     9.722     5.903     9.278    18.735    20.409     0.005     0.001     0.000     0.000     0.001     2.679     0.007     0.000 .00000E+00 0.000E+00 0.000E+00 0.000E+00 0.000E+00 0.000E+00
BIGSUB   0        0    0
BIGSUB   1        0   11.24803E+01    70.430    12.350     5.196     3.042   121.513    30.991     7.939    26.667    59.794    23.585     0.010     0.001     0.000     0.000     0.001    22.850     0.040     0.003 .00000E+00 0.000E+00 0.000E+00 0.000E+00 0.000E+00 0.000E+00
BIGSUB   0        0    0
BIGSUB   2        0   11.14730E+01    70.500    45.428     1.965     1.330   249.230    27.950    16.478    17.747    41.618    42.405     0.221     0.027     0.000     0.000     0.022     6.284     0.020     0.001 .00000E+00 0.000E+00 0.000E+00 0.000E+00 0.000E+00 0.000E+00
BIGSUB   0        0    0
BIGSUB   3        0   11.13769E+01    70.571    32.925     2.044     1.155   249.406     9.789    15.409     8.874    27.667    35.674     0.012     0.002     0.000     0.000     0.002     2.637     0.007     0.000 .00000E+00 0.000E+00 0.000E+00 0.000E+00 0.000E+00 0.000E+00
BIGSUB   0        0    0
BIGSUB   1        0   12.24803E+01   159.440    76.152     6.142     3.389   121.626    87.312    42.124    31.677   133.690   138.349     0.068     0.008     0.000     0.000     0.006    57.669     0.091     0.004 .00000E+00 0.000E+00 0.000E+00 0.000E+00 0.000E+00 0.000E+00
BIGSUB   0        0    0
BIGSUB   2        0   12.14730E+01   159.600    46.321     1.724     0.917   249.221    35.823    27.363    22.576    58.772    84.312     0.249     0.031     0.000     0.000     0.025     7.662     0.036     0.002 .00000E+00 0.000E+00 0.000E+00 0.000E+00 0.000E+00 0.000E+00
BIGSUB   0        0    0
BIGSUB   3        0   12.13769E+01   159.760    49.120     2.343     1.270   249.802    34.588    38.112    11.891    58.438   120.069     0.020     0.003     0.000     0.000     0.002     7.700     0.049     0.001 .00000E+00 0.000E+00 0.000E+00 0.000E+00 0.000E+00 0.000E+00
BIGSUB   0        0    0
BIGSUB   1        0 1986.24803E+01  1343.456  1302.355   121.057    67.768   121.626   940.551   659.235   912.917  2279.551  2138.387    30.219     3.700     0.001     0.005     2.942   660.000     0.543     0.143 .00000E+00 0.000E+00 0.000E+00 0.000E+00 0.000E+00 0.000E+00
BIGSUB   0        0    0
BIGSUB   2        0 1986.14730E+01  1344.800   691.224    63.023    48.826   249.221   379.931   408.099   360.641   871.648  1390.970    30.505     3.740     0.000     0.002     2.975    84.377     0.272     0.032 .00000E+00 0.000E+00 0.000E+00 0.000E+00 0.000E+00 0.000E+00
BIGSUB   0        0    0
BIGSUB   3        0 1986.13769E+01  1346.145   565.964   126.683   108.311   249.802   289.375   386.600   266.561   739.543  1369.416    30.172     3.700     0.000     0.002     2.944    72.415     0.279     0.028 .00000E+00 0.000E+00 0.000E+00 0.000E+00 0.000E+00 0.000E+00
BIGSUB   0        0    0
BIGSUB   1        0    1.24803E+01   261.538   173.159     7.698     4.024   121.675   149.308   113.340    67.238   285.224   375.476    26.742     3.271     0.000     0.002     2.611   102.004     0.096     0.018 .00000E+00 0.000E+00 0.000E+00 0.000E+00 0.000E+00 0.000E+00
BIGSUB   0        0    0
BIGSUB   2        0    1.14730E+01   261.800    99.454     2.146     1.127   249.232    54.200    74.261    31.093   118.496   245.031    29.152     3.572     0.000     0.001     2.826    11.829     0.049     0.003 .00000E+00 0.000E+00 0.000E+00 0.000E+00 0.000E+00 0.000E+00
BIGSUB   0        0    0
BIGSUB   3        0    1.13769E+01   262.062   114.236     2.880     1.537   249.803    56.377   105.799    25.914   145.890   384.878    29.692     3.638     0.000     0.002     2.887    13.245     0.068     0.004 .00000E+00 0.000E+00 0.000E+00 0.000E+00 0.000E+00 0.000E+00
BIGSUB   0        0    0
BIGSUB   1        0    2.24803E+01   229.370   228.817     6.144     3.391   121.629   149.956   145.795    97.413   349.787   396.323     1.881     0.230     0.000     0.001     0.189   103.375     0.064     0.025 .00000E+00 0.000E+00 0.000E+00 0.000E+00 0.000E+00 0.000E+00
BIGSUB   0        0    0
BIGSUB   2        0    2.14730E+01   229.600   129.213     2.260     1.502   249.224    52.516   100.666    37.948   151.881   331.535     0.915     0.114     0.000     0.000     0.102    11.843     0.039     0.005 .00000E+00 0.000E+00 0.000E+00 0.000E+00 0.000E+00 0.000E+00
BIGSUB   0        0    0
BIGSUB   3        0    2.13769E+01   229.830   107.392     2.386     1.338   249.779    46.482   100.692    35.867   149.026   325.786     0.228     0.030     0.000     0.000     0.030    11.315     0.043     0.006 .00000E+00 0.000E+00 0.000E+00 0.000E+00 0.000E+00 0.000E+00
BIGSUB   0        0    0
BIGSUB   1        0    3.24803E+01    90.609   177.474    16.287     8.666   121.485   117.464    44.387   127.116   259.858   139.574     0.077     0.009     0.000     0.000     0.008    83.914     0.047     0.025 .00000E+00 0.000E+00 0.000E+00 0.000E+00 0.000E+00 0.000E+00
BIGSUB   0        0    0
BIGSUB   2        0    3.14730E+01    90.700    70.525     6.461     4.591   248.294    41.275    33.175    47.048    91.372   109.138     0.099     0.013     0.000     0.000     0.011     9.318     0.024     0.005 .00000E+00 0.000E+00 0.000E+00 0.000E+00 0.000E+00 0.000E+00
BIGSUB   0        0    0
BIGSUB   3        0    3.13769E+01    90.791    64.056    12.815    11.134   246.983    31.093    37.562    42.525    89.757   129.884     0.018     0.002     0.000     0.000     0.003     8.128     0.024     0.006 .00000E+00 0.000E+00 0.000E+00 0.000E+00 0.000E+00 0.000E+00
BIGSUB   0        0    0
BIGSUB   1        0    4.24803E+01    34.965    79.840    13.273     7.292   121.322    50.599    16.175   112.921   173.431    60.243     0.029     0.004     0.000     0.000     0.003    39.608     0.024     0.016 .00000E+00 0.000E+00 0.000E+00 0.000E+00 0.000E+00 0.000E+00
BIGSUB   0        0    0
BIGSUB   2        0    4.14730E+01    35.000    64.882     7.640     6.264   247.563    33.646    26.442    42.011    78.029    82.417     0.021     0.003     0.000     0.000     0.002     7.695     0.015     0.004 .00000E+00 0.000E+00 0.000E+00 0.000E+00 0.000E+00 0.000E+00
BIGSUB   0        0    0
BIGSUB   3        0    4.13769E+01    35.035    34.245    16.225    15.034   243.507    14.924    15.284    33.419    54.459    58.597     0.004     0.000     0.000     0.000     0.000     4.209     0.007     0.003 .00000E+00 0.000E+00 0.000E+00 0.000E+00 0.000E+00 0.000E+00
BIGSUB   0        0    0
BIGSUB   1        0    5.24803E+01    10.589    34.029    14.853     8.221   120.717    20.372     0.036    78.404    98.655     0.092     0.000     0.000     0.000     0.000     0.000    15.629     0.015     0.006 .00000E+00 0.000E+00 0.000E+00 0.000E+00 0.000E+00 0.000E+00
BIGSUB   0        0    0
BIGSUB   2        0    5.14730E+01    10.600    21.589     8.570     7.065   244.601    15.312     2.387    35.423    43.074     7.137     0.000     0.000     0.000     0.000     0.000     3.358     0.007     0.002 .00000E+00 0.000E+00 0.000E+00 0.000E+00 0.000E+00 0.000E+00
BIGSUB   0        0    0
BIGSUB   3        0    5.13769E+01    10.611    21.030    18.492    15.515   235.848    12.324     5.180    23.892    33.892    17.559     0.000     0.000     0.000     0.000     0.000     3.344     0.006     0.001 .00000E+00 0.000E+00 0.000E+00 0.000E+00 0.000E+00 0.000E+00
BIGSUB   0        0    0
BIGSUB   1        0    6.24803E+01     8.691    28.755    14.245     7.951   121.059    16.201     0.009    44.534    61.595     0.032     0.000     0.000     0.000     0.000     0.000    13.268     0.017     0.002 .00000E+00 0.000E+00 0.000E+00 0.000E+00 0.000E+00 0.000E+00
BIGSUB   0        0    0
BIGSUB   2        0    6.14730E+01     8.700    16.540     9.450     6.871   242.230    12.160     0.867    24.136    29.536     2.431     0.000     0.000     0.000     0.000     0.000     2.871     0.007     0.001 .00000E+00 0.000E+00 0.000E+00 0.000E+00 0.000E+00 0.000E+00
BIGSUB   0        0    0
BIGSUB   3        0    6.13769E+01     8.709    18.863    20.874    15.768   228.766    11.424     3.716    16.539    24.727    13.909     0.000     0.000     0.000     0.000     0.000     3.212     0.006     0.001 .00000E+00 0.000E+00 0.000E+00 0.000E+00 0.000E+00 0.000E+00
BIGSUB   0        0    0
BIGSUB   1        0    7.24803E+01    11.688    29.663    16.050     8.891   120.863    17.736     0.054    28.487    45.077     0.189     0.000     0.000     0.000     0.000     0.000    13.322     0.021     0.001 .00000E+00 0.000E+00 0.000E+00 0.000E+00 0.000E+00 0.000E+00
BIGSUB   0        0    0
BIGSUB   2        0    7.14730E+01    11.700    18.243    10.039     7.348   239.603    13.217     1.551    16.995    22.810     5.311     0.000     0.000     0.000     0.000     0.000     2.784     0.008     0.001 .00000E+00 0.000E+00 0.000E+00 0.000E+00 0.000E+00 0.000E+00
BIGSUB   0        0    0
BIGSUB   3        0    7.13769E+01    11.712     4.445    21.885    17.130   221.004     2.789     0.094    11.340    13.390     0.354     0.000     0.000     0.000     0.000     0.000     0.837     0.002     0.000 .00000E+00 0.000E+00 0.000E+00 0.000E+00 0.000E+00 0.000E+00
BIGSUB   0        0    0
BIGSUB   1        0    8.24803E+01    17.882    32.396    14.995     8.303   120.700    22.781     0.335    22.833    43.617     2.021     0.000     0.000     0.000     0.000     0.000    17.796     0.031     0.001 .00000E+00 0.000E+00 0.000E+00 0.000E+00 0.000E+00 0.000E+00
BIGSUB   0        0    0
BIGSUB   2        0    8.14730E+01    17.900    29.518     9.459     7.231   237.381    20.178     4.677    15.334    25.668    16.984     0.003     0.000     0.000     0.000     0.000     4.363     0.013     0.001 .00000E+00 0.000E+00 0.000E+00 0.000E+00 0.000E+00 0.000E+00
BIGSUB   0        0    0
BIGSUB   3        0    8.13769E+01    17.918     6.577    20.414    16.616   214.158     4.289     0.239     7.087     9.367     1.031     0.000     0.000     0.000     0.000     0.000     1.130     0.003     0.000 .00000E+00 0.000E+00 0.000E+00 0.000E+00 0.000E+00 0.000E+00
BIGSUB   0        0    0
BIGSUB   1        0    9.24803E+01    21.678    14.759    17.251     9.524   120.513    12.675     0.334    16.660    29.259     1.698     0.000     0.000     0.000     0.000     0.000    10.120     0.019     0.001 .00000E+00 0.000E+00 0.000E+00 0.000E+00 0.000E+00 0.000E+00
BIGSUB   0        0    0
BIGSUB   2        0    9.14730E+01    21.700    29.297     9.796     7.564   235.760    19.485     4.730    16.154    26.340    17.219     0.013     0.002     0.000     0.000     0.001     4.307     0.013     0.001 .00000E+00 0.000E+00 0.000E+00 0.000E+00 0.000E+00 0.000E+00
BIGSUB   0        0    0
BIGSUB   3        0    9.13769E+01    21.722     8.388    19.152    15.900   208.839     5.464     0.753     5.117     8.048     2.558     0.000     0.000     0.000     0.000     0.000     1.462     0.005     0.000 .00000E+00 0.000E+00 0.000E+00 0.000E+00 0.000E+00 0.000E+00
BIGSUB   0        0    0
BIGSUB   1        0   10.24803E+01    41.159    25.063     9.626     5.412   121.127    27.762     2.987    17.550    43.189    12.952     0.002     0.000     0.000     0.000     0.000    20.769     0.043     0.001 .00000E+00 0.000E+00 0.000E+00 0.000E+00 0.000E+00 0.000E+00
BIGSUB   0        0    0
BIGSUB   2        0   10.14730E+01    41.200    21.095     5.421     4.418   238.611    14.236     3.798    17.411    25.628    10.223     0.056     0.007     0.000     0.000     0.006     3.299     0.010     0.001 .00000E+00 0.000E+00 0.000E+00 0.000E+00 0.000E+00 0.000E+00
BIGSUB   0        0    0
BIGSUB   3        0   10.13769E+01    41.241    19.999     5.067     3.365   214.929    10.035     7.484     5.982    16.854    38.127     0.005     0.001     0.000     0.000     0.001     2.761     0.009     0.000 .00000E+00 0.000E+00 0.000E+00 0.000E+00 0.000E+00 0.000E+00
BIGSUB   0        0    0
BIGSUB   1        0   11.24803E+01    92.308    13.310     8.168     4.598   121.548    41.414     5.782    22.185    59.578    19.945     0.002     0.000     0.000     0.000     0.000    29.947     0.061     0.002 .00000E+00 0.000E+00 0.000E+00 0.000E+00 0.000E+00 0.000E+00
BIGSUB   0        0    0
BIGSUB   2        0   11.14730E+01    92.400    17.869     2.823     1.828   247.331    12.047     7.542    14.849    26.017    19.079     0.099     0.012     0.000     0.000     0.011     2.624     0.009     0.001 .00000E+00 0.000E+00 0.000E+00 0.000E+00 0.000E+00 0.000E+00
BIGSUB   0        0    0
BIGSUB   3        0   11.13769E+01    92.492    37.893     3.166     1.716   237.948    10.711    20.672     7.465    31.594    60.001     0.010     0.002     0.000     0.000     0.001     2.901     0.009     0.000 .00000E+00 0.000E+00 0.000E+00 0.000E+00 0.000E+00 0.000E+00
BIGSUB   0        0    0
BIGSUB   1        0   12.24803E+01   122.777    14.979     3.879     2.200   121.574    54.562     9.968    33.751    84.404    36.179     0.006     0.001     0.000     0.000     0.001    38.923     0.069     0.006 .00000E+00 0.000E+00 0.000E+00 0.000E+00 0.000E+00 0.000E+00
BIGSUB   0        0    0
BIGSUB   2        0   12.14730E+01   122.900    56.730     1.056     0.586   249.209    39.329    26.094    17.078    52.690    61.178     0.043     0.005     0.000     0.000     0.005     8.523     0.037     0.001 .00000E+00 0.000E+00 0.000E+00 0.000E+00 0.000E+00 0.000E+00
BIGSUB   0        0    0
[...]
BIGSUB   0        0    0
BIGSUB   1        0    5.24803E+01    13.986    96.216    11.851     6.680   121.322    53.092    12.737   122.868   182.216    36.495     0.011     0.001     0.000     0.000     0.001    41.263     0.023     0.015 .00000E+00 0.000E+00 0.000E+00 0.000E+00 0.000E+00 0.000E+00
BIGSUB   0        0    0
BIGSUB   2        0    5.14730E+01    14.000    56.793     8.243     7.010   246.481    29.076    21.717    42.839    73.213    68.949     0.020     0.002     0.000     0.000     0.002     6.736     0.012     0.003 .00000E+00 0.000E+00 0.000E+00 0.000E+00 0.000E+00 0.000E+00
BIGSUB   0        0    0
BIGSUB   3        0    5.13769E+01    14.014    31.036    18.647    17.433   240.651    14.481    12.387    30.918    48.905    47.202     0.002     0.000     0.000     0.000     0.000     4.105     0.007     0.002 .00000E+00 0.000E+00 0.000E+00 0.000E+00 0.000E+00 0.000E+00
BIGSUB   0        0    0
BIGSUB   1        0    6.24803E+01    10.290    16.010    18.580    10.061   120.772     8.579     0.031    76.620    88.827     0.181     0.000     0.000     0.000     0.000     0.000     7.406     0.007     0.005 .00000E+00 0.000E+00 0.000E+00 0.000E+00 0.000E+00 0.000E+00
BIGSUB   0        0    0
BIGSUB   2        0    6.14730E+01    10.300     7.843     9.668     7.343   243.622     5.539     0.279    30.634    33.921     1.031     0.001     0.000     0.000     0.000     0.000     1.236     0.003     0.002 .00000E+00 0.000E+00 0.000E+00 0.000E+00 0.000E+00 0.000E+00
BIGSUB   0        0    0
BIGSUB   3        0    6.13769E+01    10.310    13.810    19.814    15.869   233.554     8.375     1.896    20.451    25.962     7.615     0.000     0.000     0.000     0.000     0.000     2.293     0.004     0.001 .00000E+00 0.000E+00 0.000E+00 0.000E+00 0.000E+00 0.000E+00
BIGSUB   0        0    0
BIGSUB   1        0    7.24803E+01     5.894    17.083    21.625    11.230   121.065     6.318     0.012    40.639    50.207     0.031     0.000     0.000     0.000     0.000     0.000     5.488     0.007     0.001 .00000E+00 0.000E+00 0.000E+00 0.000E+00 0.000E+00 0.000E+00
BIGSUB   0        0    0
BIGSUB   2        0    7.14730E+01     5.900     8.992    12.598     8.369   240.711     5.488     0.462    17.718    20.869     1.674     0.002     0.000     0.000     0.000     0.000     1.136     0.003     0.000 .00000E+00 0.000E+00 0.000E+00 0.000E+00 0.000E+00 0.000E+00
BIGSUB   0        0    0
BIGSUB   3        0    7.13769E+01     5.906    13.911    26.345    19.008   224.388     8.214     2.068    13.378    18.841     8.041     0.000     0.000     0.000     0.000     0.000     2.221     0.005     0.001 .00000E+00 0.000E+00 0.000E+00 0.000E+00 0.000E+00 0.000E+00
BIGSUB   0        0    0
BIGSUB   1        0    8.24803E+01    13.087    23.494    14.426     7.980   120.774    15.026     0.034    20.990    36.350     0.110     0.000     0.000     0.000     0.000     0.000    12.100     0.020     0.001 .00000E+00 0.000E+00 0.000E+00 0.000E+00 0.000E+00 0.000E+00
BIGSUB   0        0    0
BIGSUB   2        0    8.14730E+01    13.100    12.408     8.348     6.455   238.592     9.358     0.330    11.193    14.897     1.118     0.008     0.001     0.000     0.000     0.001     2.100     0.006     0.000 .00000E+00 0.000E+00 0.000E+00 0.000E+00 0.000E+00 0.000E+00
BIGSUB   0        0    0
BIGSUB   3        0    8.13769E+01    13.113    13.507    17.416    13.926   218.032     8.504     1.997    10.006    15.458     9.373     0.000     0.000     0.000     0.000     0.000     2.452     0.006     0.000 .00000E+00 0.000E+00 0.000E+00 0.000E+00 0.000E+00 0.000E+00
BIGSUB   0        0    0
BIGSUB   1        0    9.24803E+01    20.280    23.435     9.416     5.304   121.042    19.314     0.069    15.205    32.629     0.215     0.000     0.000     0.000     0.000     0.000    14.841     0.029     0.001 .00000E+00 0.000E+00 0.000E+00 0.000E+00 0.000E+00 0.000E+00
BIGSUB   0        0    0
BIGSUB   2        0    9.14730E+01    20.300    14.056     5.990     4.973   238.012    10.857     0.756     9.692    13.965     2.359     0.053     0.007     0.000     0.000     0.005     2.479     0.008     0.000 .00000E+00 0.000E+00 0.000E+00 0.000E+00 0.000E+00 0.000E+00
BIGSUB   0        0    0
BIGSUB   3        0    9.13769E+01    20.320     9.948    13.661    11.851   215.838     4.795     0.830     7.985    10.895     3.406     0.012     0.001     0.000     0.000     0.001     1.256     0.003     0.000 .00000E+00 0.000E+00 0.000E+00 0.000E+00 0.000E+00 0.000E+00
BIGSUB   0        0    0
BIGSUB   1        0   10.24803E+01    76.024     1.722     6.745     3.855   121.513    29.848     2.368    18.368    45.144     9.397     0.000     0.000     0.000     0.000     0.000    22.234     0.044     0.001 .00000E+00 0.000E+00 0.000E+00 0.000E+00 0.000E+00 0.000E+00
BIGSUB   0        0    0
BIGSUB   2        0   10.14730E+01    76.100    25.611     1.956     1.071   241.321    21.572     7.314    10.726    23.462    24.513     0.047     0.006     0.000     0.000     0.005     4.482     0.016     0.000 .00000E+00 0.000E+00 0.000E+00 0.000E+00 0.000E+00 0.000E+00
BIGSUB   0        0    0
BIGSUB   3        0   10.13769E+01    76.176    33.549     9.357     8.703   234.644     6.901    12.540     6.635    21.785    36.907     0.158     0.019     0.000     0.000     0.017     1.895     0.006     0.000 .00000E+00 0.000E+00 0.000E+00 0.000E+00 0.000E+00 0.000E+00
BIGSUB   0        0    0
BIGSUB   1        0   11.24803E+01    79.720    40.028     7.724     4.316   121.589    49.264     9.978    26.314    72.149    36.276     0.006     0.001     0.000     0.000     0.001    33.925     0.061     0.003 .00000E+00 0.000E+00 0.000E+00 0.000E+00 0.000E+00 0.000E+00
BIGSUB   0        0    0
BIGSUB   2        0   11.14730E+01    79.800    44.318     2.276     1.206   247.401    26.982    17.255    16.606    40.766    59.177     0.700     0.086     0.000     0.000     0.069     5.992     0.019     0.001 .00000E+00 0.000E+00 0.000E+00 0.000E+00 0.000E+00 0.000E+00
BIGSUB   0        0    0
BIGSUB   3        0   11.13769E+01    79.880    41.127     3.220     1.816   249.802    14.151    21.360     6.847    32.126    73.211     0.129     0.016     0.000     0.000     0.014     3.314     0.014     0.000 .00000E+00 0.000E+00 0.000E+00 0.000E+00 0.000E+00 0.000E+00
BIGSUB   0        0    0
BIGSUB   1        0   12.24803E+01    50.649    46.227    11.922     6.503   121.554    41.678     5.748    35.182    74.800    16.627     0.003     0.000     0.000     0.000     0.000    31.881     0.052     0.005 .00000E+00 0.000E+00 0.000E+00 0.000E+00 0.000E+00 0.000E+00
BIGSUB   0        0    0
BIGSUB   2        0   12.14730E+01    50.700    40.370     3.499     1.823   249.231    26.745    12.423    21.872    41.258    35.323     0.795     0.097     0.000     0.000     0.079     5.946     0.026     0.002 .00000E+00 0.000E+00 0.000E+00 0.000E+00 0.000E+00 0.000E+00
BIGSUB   0        0    0
BIGSUB   3        0   12.13769E+01    50.751    27.242     4.626     2.445   249.801    20.541    11.484    10.830    28.193    32.333     0.026     0.003     0.000     0.000     0.003     5.258     0.031     0.001 .00000E+00 0.000E+00 0.000E+00 0.000E+00 0.000E+00 0.000E+00
BIGSUB   0        0    0
BIGSUB   1        0 1989.24803E+01  1079.719  1076.899   135.237    73.787   121.554   794.602   475.468   762.767  1841.462  1356.154    29.312     3.581     0.001     0.004     2.867   563.693     0.518     0.123 .00000E+00 0.000E+00 0.000E+00 0.000E+00 0.000E+00 0.000E+00
BIGSUB   0        0    0
BIGSUB   2        0 1989.14730E+01  1080.800   587.096    63.895    45.517   249.231   326.641   329.356   303.970   721.810  1014.222    29.026     3.559     0.000     0.002     2.824    72.577     0.231     0.025 .00000E+00 0.000E+00 0.000E+00 0.000E+00 0.000E+00 0.000E+00
BIGSUB   0        0    0
BIGSUB   3        0 1989.13769E+01  1081.881   466.171   132.979   105.865   249.801   245.959   285.781   228.908   588.755   959.313    29.602     3.629     0.000     0.002     2.886    62.042     0.248     0.022 .00000E+00 0.000E+00 0.000E+00 0.000E+00 0.000E+00 0.000E+00
BIGSUB   0        0    0
BIGSUB   1        0    1.24803E+01   131.069   115.097     4.544     2.472   121.574   102.336    35.816    44.848   153.636   103.895    16.533     2.021     0.000     0.001     1.615    70.876     0.094     0.009 .00000E+00 0.000E+00 0.000E+00 0.000E+00 0.000E+00 0.000E+00
BIGSUB   0        0    0
BIGSUB   2        0    1.14730E+01   131.200    63.897     1.257     0.686   249.231    42.714    32.163    25.100    67.551    97.444    23.781     2.914     0.000     0.001     2.290     9.184     0.042     0.002 .00000E+00 0.000E+00 0.000E+00 0.000E+00 0.000E+00 0.000E+00
BIGSUB   0        0    0
BIGSUB   3        0    1.13769E+01   131.331    70.878     1.754     0.981   249.802    43.832    44.540    18.619    73.994   144.229    25.487     3.122     0.000     0.001     2.457    10.102     0.061     0.002 .00000E+00 0.000E+00 0.000E+00 0.000E+00 0.000E+00 0.000E+00
BIGSUB   0        0    0
BIGSUB   1        0    2.24803E+01    78.621    60.916     8.906     4.699   121.583    59.010    13.544    59.302   118.405    41.849     1.052     0.129     0.000     0.000     0.108    43.283     0.045     0.013 .00000E+00 0.000E+00 0.000E+00 0.000E+00 0.000E+00 0.000E+00
BIGSUB   0        0    0
BIGSUB   2        0    2.14730E+01    78.700    50.274     3.409     2.417   249.231    32.556    21.051    29.442    59.211    66.674     3.973     0.487     0.000     0.000     0.395     7.560     0.029     0.003 .00000E+00 0.000E+00 0.000E+00 0.000E+00 0.000E+00 0.000E+00
BIGSUB   0        0    0
BIGSUB   3        0    2.13769E+01    78.779    37.004     4.270     3.093   249.801    24.309    20.185    25.131    52.316    61.674     1.959     0.240     0.000     0.000     0.202     6.139     0.027     0.003 .00000E+00 0.000E+00 0.000E+00 0.000E+00 0.000E+00 0.000E+00
BIGSUB   0        0    0
BIGSUB   1        0    3.24803E+01    67.333    78.348    11.938     6.478   121.543    63.529    14.166    69.323   134.316    46.097     0.991     0.121     0.000     0.000     0.099    48.004     0.047     0.013 .00000E+00 0.000E+00 0.000E+00 0.000E+00 0.000E+00 0.000E+00
BIGSUB   0        0    0
BIGSUB   2        0    3.14730E+01    67.400    45.397     4.830     3.319   249.166    31.395    15.950    33.637    58.146    41.368     0.885     0.108     0.000     0.000     0.093     7.144     0.023     0.003 .00000E+00 0.000E+00 0.000E+00 0.000E+00 0.000E+00 0.000E+00
BIGSUB   0        0    0
BIGSUB   3        0    3.13769E+01    67.467    43.858    11.551    10.380   249.755    23.106    19.959    28.297    55.386    64.552     0.857     0.105     0.000     0.000     0.091     6.034     0.024     0.003 .00000E+00 0.000E+00 0.000E+00 0.000E+00 0.000E+00 0.000E+00
BIGSUB   0        0    0
BIGSUB   1        0    4.24803E+01    55.345    52.929    14.299     7.773   121.429    47.167     9.199    60.949   107.882    35.326     0.602     0.074     0.000     0.000     0.059    34.884     0.037     0.009 .00000E+00 0.000E+00 0.000E+00 0.000E+00 0.000E+00 0.000E+00
BIGSUB   0        0    0
BIGSUB   2        0    4.14730E+01    55.400    39.226     6.889     5.372   247.918    26.487    12.921    30.343    50.545    40.192     0.599     0.073     0.000     0.000     0.063     5.856     0.018     0.002 .00000E+00 0.000E+00 0.000E+00 0.000E+00 0.000E+00 0.000E+00
BIGSUB   0        0    0
BIGSUB   3        0    4.13769E+01    55.455    23.412    12.872    11.404   246.431    17.860    10.678    23.671    39.989    36.142     0.156     0.019     0.000     0.000     0.017     4.538     0.016     0.002 .00000E+00 0.000E+00 0.000E+00 0.000E+00 0.000E+00 0.000E+00
BIGSUB   0        0    0
BIGSUB   1        0    5.24803E+01    20.380    36.507    17.833     9.907   120.326    25.882     0.497    50.327    73.504     1.830     0.001     0.000     0.000     0.000     0.000    19.842     0.024     0.005 .00000E+00 0.000E+00 0.000E+00 0.000E+00 0.000E+00 0.000E+00
BIGSUB   0        0    0
BIGSUB   2        0    5.14730E+01    20.400    23.551    10.780     8.865   245.190    16.517     3.150    27.104    35.451     8.967     0.052     0.006     0.000     0.000     0.006     3.747     0.010     0.002 .00000E+00 0.000E+00 0.000E+00 0.000E+00 0.000E+00 0.000E+00
BIGSUB   0        0    0
BIGSUB   3        0    5.13769E+01    20.420    23.014    23.252    20.791   236.862    13.335     6.138    19.950    30.865    21.301     0.008     0.001     0.000     0.000     0.001     3.675     0.008     0.001 .00000E+00 0.000E+00 0.000E+00 0.000E+00 0.000E+00 0.000E+00
BIGSUB   0        0    0
BIGSUB   1        0    6.24803E+01    19.580    17.690    11.361     6.452   120.928    15.089     0.002    34.288    48.906     0.004     0.000     0.000     0.000     0.000     0.000    12.161     0.018     0.003 .00000E+00 0.000E+00 0.000E+00 0.000E+00 0.000E+00 0.000E+00
BIGSUB   0        0    0
BIGSUB   2        0    6.14730E+01    19.600     9.389     7.610     6.463   243.003     7.942     0.430    19.513    23.063     1.653     0.006     0.001     0.000     0.000     0.001     1.834     0.005     0.001 .00000E+00 0.000E+00 0.000E+00 0.000E+00 0.000E+00 0.000E+00
BIGSUB   0        0    0
BIGSUB   3        0    6.13769E+01    19.620    16.484    17.258    15.299   232.193     9.696     2.437    15.158    21.283     9.056     0.005     0.001     0.000     0.000     0.001     2.705     0.006     0.001 .00000E+00 0.000E+00 0.000E+00 0.000E+00 0.000E+00 0.000E+00
BIGSUB   0        0    0
BIGSUB   1        0    7.24803E+01    11.289    23.686    13.813     7.740   121.106    14.756     0.070    24.309    38.060     0.398     0.000     0.000     0.000     0.000     0.000    11.511     0.020     0.001 .00000E+00 0.000E+00 0.000E+00 0.000E+00 0.000E+00 0.000E+00
BIGSUB   0        0    0
BIGSUB   2        0    7.14730E+01    11.300    12.978     9.133     7.025   240.623     9.427     0.746    13.604    17.551     2.437     0.008     0.001     0.000     0.000     0.001     2.049     0.007     0.000 .00000E+00 0.000E+00 0.000E+00 0.000E+00 0.000E+00 0.000E+00
BIGSUB   0        0    0
BIGSUB   3        0    7.13769E+01    11.311    17.277    20.104    16.780   224.072    10.757     3.079    11.350    18.249    11.958     0.001     0.000     0.000     0.000     0.000     2.910     0.007     0.001 .00000E+00 0.000E+00 0.000E+00 0.000E+00 0.000E+00 0.000E+00
BIGSUB   0        0    0
BIGSUB   1        0    8.24803E+01    16.084    31.313    10.190     5.625   120.939    22.392     0.461    18.572    37.033     2.768     0.001     0.000     0.000     0.000     0.000    16.165     0.032     0.001 .00000E+00 0.000E+00 0.000E+00 0.000E+00 0.000E+00 0.000E+00
BIGSUB   0        0    0
BIGSUB   2        0    8.14730E+01    16.100    19.368     7.267     5.535   239.032    14.315     2.210    10.969    17.154     8.002     0.065     0.008     0.000     0.000     0.007     2.986     0.011     0.000 .00000E+00 0.000E+00 0.000E+00 0.000E+00 0.000E+00 0.000E+00
BIGSUB   0        0    0
BIGSUB   3        0    8.13769E+01    16.116     6.307    16.301    13.054   218.703     4.367     0.446     9.521    12.001     3.144     0.007     0.001     0.000     0.000     0.001     1.230     0.003     0.000 .00000E+00 0.000E+00 0.000E+00 0.000E+00 0.000E+00 0.000E+00
BIGSUB   0        0    0
BIGSUB   1        0    9.24803E+01    23.576    26.618     5.998     3.492   120.907    24.277     0.188    19.514    39.627     0.514     0.000     0.000     0.000     0.000     0.000    18.345     0.037     0.002 .00000E+00 0.000E+00 0.000E+00 0.000E+00 0.000E+00 0.000E+00
BIGSUB   0        0    0
BIGSUB   2        0    9.14730E+01    23.600    17.224     5.348     4.771   239.088    13.147     1.257    11.729    16.814     3.943     0.034     0.004     0.000     0.000     0.004     2.956     0.011     0.001 .00000E+00 0.000E+00 0.000E+00 0.000E+00 0.000E+00 0.000E+00
BIGSUB   0        0    0
BIGSUB   3        0    9.13769E+01    23.624    11.738    12.120    11.551   216.554     6.838     0.738     7.268    10.578     2.783     0.012     0.001     0.000     0.000     0.001     1.905     0.005     0.000 .00000E+00 0.000E+00 0.000E+00 0.000E+00 0.000E+00 0.000E+00
BIGSUB   0        0    0
BIGSUB   1        0   10.24803E+01    61.339    13.005     6.371     3.727   121.031    30.923     1.551    22.673    49.140     5.684     0.005     0.001     0.000     0.000     0.001    23.391     0.047     0.002 .00000E+00 0.000E+00 0.000E+00 0.000E+00 0.000E+00 0.000E+00
BIGSUB   0        0    0
BIGSUB   2        0   10.14730E+01    61.400    19.422     3.418     2.713   242.965    14.924     4.912    12.405    21.351    15.341     0.206     0.025     0.000     0.000     0.021     3.196     0.012     0.001 .00000E+00 0.000E+00 0.000E+00 0.000E+00 0.000E+00 0.000E+00
BIGSUB   0        0    0
BIGSUB   3        0   10.13769E+01    61.461    28.594     6.440     5.626   232.140     9.243     9.705     7.212    20.013    25.166     0.282     0.035     0.000     0.000     0.029     2.489     0.007     0.000 .00000E+00 0.000E+00 0.000E+00 0.000E+00 0.000E+00 0.000E+00
BIGSUB   0        0    0
BIGSUB   1        0   11.24803E+01    80.420     5.184     7.024     3.850   121.509    31.769     5.553    18.972    49.085    23.854     0.205     0.025     0.000     0.000     0.020    23.526     0.044     0.003 .00000E+00 0.000E+00 0.000E+00 0.000E+00 0.000E+00 0.000E+00
BIGSUB   0        0    0
BIGSUB   2        0   11.14730E+01    80.500    35.227     2.040     1.078   248.027    22.197    15.519    10.087    31.021    43.909     0.237     0.029     0.000     0.000     0.025     4.853     0.017     0.001 .00000E+00 0.000E+00 0.000E+00 0.000E+00 0.000E+00 0.000E+00
BIGSUB   0        0    0
BIGSUB   3        0   11.13769E+01    80.581    38.970     3.253     2.030   249.792    10.524    21.712     5.392    29.963    60.356     0.428     0.053     0.000     0.000     0.045     2.475     0.011     0.000 .00000E+00 0.000E+00 0.000E+00 0.000E+00 0.000E+00 0.000E+00
BIGSUB   0        0    0
BIGSUB   1        0 1990.24803E+01   565.035   461.292   112.276    62.215   121.509   437.131    81.049   423.077   849.594   262.219    19.390     2.370     0.000     0.001     1.902   321.989     0.445     0.060 .00000E+00 0.000E+00 0.000E+00 0.000E+00 0.000E+00 0.000E+00
BIGSUB   0        0    0
BIGSUB   2        0 1990.14730E+01   565.600   335.952    61.979    48.247   248.027   231.623   110.307   223.930   397.859   329.930    29.847     3.657     0.000     0.001     2.905    51.365     0.184     0.016 .00000E+00 0.000E+00 0.000E+00 0.000E+00 0.000E+00 0.000E+00
BIGSUB   0        0    0
BIGSUB   3        0 1990.13769E+01   566.166   317.536   129.175   110.990   249.792   173.867   139.619   171.569   364.637   440.362    29.202     3.578     0.000     0.001     2.844    44.202     0.177     0.014 .00000E+00 0.000E+00 0.000E+00 0.000E+00 0.000E+00 0.000E+00
BIGSUB   0        0    0
BIGSUB   1        0  9.7.24803E+01  1056.155   866.931   125.760    69.348   121.509   714.240   379.016   671.976  1596.389  1181.756    44.331     5.429     0.002     0.005     4.317   510.386     0.784     0.138 .00000E+00 0.000E+00 0.000E+00 0.000E+00 0.000E+00 0.000E+00
BIGSUB   0        0  0.0
BIGSUB   2        0  9.7.14730E+01  1057.212   519.653    64.538    47.755   248.027   298.126   272.256   278.956   631.935   856.728    46.820     5.738     0.008     0.002     4.563    66.222     0.431     0.045 .00000E+00 0.000E+00 0.000E+00 0.000E+00 0.000E+00 0.000E+00
BIGSUB   0        0  0.0
BIGSUB   3        0  9.7.13769E+01  1058.269   444.927   132.951   109.294   249.792   223.233   282.068   208.074   557.393   971.354    47.665     5.841     0.035     0.002     4.650    56.337     0.440     0.037 .00000E+00 0.000E+00 0.000E+00 0.000E+00 0.000E+00 0.000E+00
BIGSUB   0        0  0.0
