1
    SWAT Nov 14  VER 2023/Rev 692                                                                        0/ 0/   0      0: 0: 0

    General Input/Output section (file.cio):                                        
    5/19/2025 12:00:00 AM ARCGIS-SWAT interface AV                                  
                                                                                    
         Number of years in run:   10
         Area of watershed:        5.790 km2
1
    SWAT Nov 14  VER 2023/Rev 692                                                   

    General Input/Output section (file.cio):                                        
    5/19/2025 12:00:00 AM ARCGIS-SWAT interface AV                                  
                                                                                    
Annual Summary for Watershed in year    1 of simulation

UNIT                                    PERCO    TILE                           WATER     SED     NO3     NO3     NO3     NO3        N       P       P
TIME     PREC    SURQ    LATQ     GWQ    LATE       Q     SW       ET     PET   YIELD   YIELD    SURQ    LATQ    PERC    CROP  ORGANIC SOLUBLE ORGANIC TILENO3
         (mm)    (mm)    (mm)    (mm)    (mm)    (mm)    (mm)    (mm)    (mm)    (mm)   (t/ha)  ------------------(kg nutrient/ha)-------------------- (kg/ha)
    4    3.10    0.00    0.02    0.00    0.00    0.00   61.84    6.67   19.15    0.02    0.00    0.00    0.00    0.00    0.00     0.00    0.00    0.00    0.00
    5   11.30    0.00    0.42    0.00    0.00    0.00   57.63   15.03   53.31    0.42    0.00    0.00    0.01    0.00    0.00     0.00    0.00    0.00    0.00
    6    8.00    0.00    0.38    0.00    0.00    0.00   52.10   13.21   59.93    0.38    0.00    0.00    0.01    0.00    0.00     0.00    0.00    0.00    0.00
    7    5.20    0.00    0.00    0.00    0.00    0.00   47.13   10.17   60.47    0.00    0.00    0.00    0.00    0.00    0.00     0.00    0.00    0.00    0.00
    8   17.00    0.00    1.14    0.00    0.00    0.00   49.30   13.66   52.45    1.14    0.01    0.00    0.03    0.00    0.00     0.02    0.00    0.00    0.00
    9   23.00    0.03    1.96    0.00    0.00    0.00   53.32   17.01   45.01    2.00    0.09    0.00    0.02    0.00    0.00     0.19    0.00    0.02    0.00
   10   49.40    0.49    6.66    0.00    0.00    0.00   79.09   15.74   30.75    7.15    1.37    0.00    0.02    0.00    0.00     3.33    0.00    0.41    0.00
   11  115.80    9.49   29.96    0.08   15.35    0.00  119.95   18.79   19.43   39.49   29.97    0.00    0.63    2.59    0.00    48.57    0.00    5.95    0.00
   12  187.70   35.74   52.72    9.66   78.64    0.00  120.06   17.93   18.25   98.23   96.29    0.01    0.83   11.06    0.00    82.96    0.00   10.16    0.00

 1981  420.50   45.76   93.26    9.74   93.99    0.00  120.06  128.20  358.76  148.83  127.73    0.01    1.55   13.65    0.00   135.07    0.01   16.54    0.00
1
    SWAT Nov 14  VER 2023/Rev 692                                                   

    General Input/Output section (file.cio):                                        
    5/19/2025 12:00:00 AM ARCGIS-SWAT interface AV                                  
                                                                                    
Annual Summary for Watershed in year    2 of simulation

UNIT                                    PERCO    TILE                           WATER     SED     NO3     NO3     NO3     NO3        N       P       P
TIME     PREC    SURQ    LATQ     GWQ    LATE       Q     SW       ET     PET   YIELD   YIELD    SURQ    LATQ    PERC    CROP  ORGANIC SOLUBLE ORGANIC TILENO3
         (mm)    (mm)    (mm)    (mm)    (mm)    (mm)    (mm)    (mm)    (mm)    (mm)   (t/ha)  ------------------(kg nutrient/ha)-------------------- (kg/ha)
    1  205.90   36.81   63.39   42.73   91.97    0.00  120.07   13.36   13.36  143.82   98.17    0.00    0.54    8.37    0.00    41.04    0.00    5.03    0.00
    2  310.00   88.04   84.11   69.04  117.78    0.00  120.03   22.57   22.57  242.88  319.13    0.00    0.36    5.85    0.00    30.54    0.00    3.74    0.00
    3  142.10   24.91   40.63   87.77   53.87    0.00  118.26   26.10   26.62  155.90   80.52    0.00    0.11    1.74    0.00     0.38    0.00    0.05    0.00
    4   72.50    8.91   17.57   69.27   20.38    0.00  116.92   27.64   32.50   98.51   22.89    0.00    0.04    0.56    0.00     0.08    0.00    0.01    0.00
    5   16.80    0.26    1.49   42.00    0.00    0.00  103.69   28.48   52.67   46.36    0.98    0.00    0.00    0.00    0.00     0.00    0.00    0.00    0.00
    6    7.70    0.00    0.22   18.68    0.00    0.00   91.76   19.46   58.64   20.94    0.00    0.00    0.00    0.00    0.00     0.00    0.00    0.00    0.00
    7    6.70    0.00    0.00    5.40    0.00    0.00   82.90   15.56   61.37    7.02    0.00    0.00    0.00    0.00    0.00     0.00    0.00    0.00    0.00
    8   12.30    0.00    0.48    0.47    0.00    0.00   79.89   14.79   42.24    2.17    0.00    0.00    0.00    0.00    0.00     0.00    0.00    0.00    0.00
    9   21.90    0.25    1.55    0.01    0.00    0.00   82.69   16.98   41.35    2.69    0.67    0.00    0.00    0.00    0.00     0.00    0.00    0.00    0.00
   10   74.00    3.05   12.85    0.02    1.75    0.00  118.78   19.51   24.68   16.59   11.81    0.00    0.02    0.05    0.00     0.01    0.00    0.00    0.00
   11  115.80   14.90   35.07    6.86   47.55    0.00  120.00   17.45   17.52   57.41   56.94    0.00    0.16    2.01    0.00     0.17    0.00    0.02    0.00
   12   77.20   10.48   22.04   21.89   29.07    0.00  119.61   16.44   17.27   55.21   35.17    0.00    0.08    1.11    0.00     0.10    0.00    0.01    0.00

 1982 1062.90  187.62  279.40  364.14  362.37    0.00  119.61  238.33  410.78  849.50  626.28    0.01    1.32   19.67    0.00    72.33    0.01    8.86    0.00
1
    SWAT Nov 14  VER 2023/Rev 692                                                   

    General Input/Output section (file.cio):                                        
    5/19/2025 12:00:00 AM ARCGIS-SWAT interface AV                                  
                                                                                    
Annual Summary for Watershed in year    3 of simulation

UNIT                                    PERCO    TILE                           WATER     SED     NO3     NO3     NO3     NO3        N       P       P
TIME     PREC    SURQ    LATQ     GWQ    LATE       Q     SW       ET     PET   YIELD   YIELD    SURQ    LATQ    PERC    CROP  ORGANIC SOLUBLE ORGANIC TILENO3
         (mm)    (mm)    (mm)    (mm)    (mm)    (mm)    (mm)    (mm)    (mm)    (mm)   (t/ha)  ------------------(kg nutrient/ha)-------------------- (kg/ha)
    1  152.70   29.42   42.23   31.11   61.94    0.00  120.05   17.05   17.05  103.79   81.29    0.00    0.13    2.01    0.00    19.72    0.00    2.42    0.00
    2  196.00   79.25   39.29   39.29   53.85    0.00  120.01   24.02   24.71  159.11  322.74    0.00    0.09    1.37    0.00    10.60    0.00    1.30    0.00
    3  255.90   68.26   60.61   56.20   88.22    0.00  120.12   35.95   36.08  186.48  215.18    0.00    0.11    1.73    0.00     0.26    0.00    0.03    0.00
    4  102.50   12.99   30.05   61.76   33.88    0.00  117.55   32.25   33.15  107.44   45.70    0.00    0.05    0.56    0.00     0.07    0.00    0.01    0.00
    5   19.80    0.14    1.34   45.19    0.00    0.00  105.02   31.04   45.73   48.95    0.59    0.00    0.00    0.00    0.00     0.00    0.00    0.00    0.00
    6   12.30    0.01    0.38   21.65    0.00    0.00   95.20   21.73   49.18   23.88    0.04    0.00    0.00    0.00    0.00     0.00    0.00    0.00    0.00
    7   11.00    0.00    0.22    7.55    0.00    0.00   86.94   19.04   49.81    9.27    0.00    0.00    0.00    0.00    0.00     0.00    0.00    0.00    0.00
    8   12.80    0.00    0.43    0.70    0.00    0.00   82.64   16.65   45.63    2.25    0.00    0.00    0.00    0.00    0.00     0.00    0.00    0.00    0.00
    9   30.90    0.32    2.80    0.03    0.00    0.00   91.30   18.75   38.65    3.96    1.08    0.00    0.00    0.00    0.00     0.00    0.00    0.00    0.00
   10   48.80    1.87    7.07    0.00    0.07    0.00  107.83   23.60   32.97    9.57    4.96    0.00    0.00    0.00    0.00     0.00    0.00    0.00    0.00
   11   56.00    6.70   11.00    0.09    6.93    0.00  119.52   18.73   23.58   18.22   16.47    0.00    0.03    0.21    0.00     0.02    0.00    0.00    0.00
   12  212.00   38.08   63.22   15.40   93.99    0.00  119.98   14.21   14.29  117.28   94.88    0.00    0.22    2.85    0.00     0.11    0.00    0.01    0.00

 1983 1110.70  237.04  258.64  278.97  338.87    0.00  119.98  273.01  410.81  790.20  782.95    0.01    0.65    8.74    0.00    30.79    0.00    3.77    0.00
1
    SWAT Nov 14  VER 2023/Rev 692                                                   

    General Input/Output section (file.cio):                                        
    5/19/2025 12:00:00 AM ARCGIS-SWAT interface AV                                  
                                                                                    
Annual Summary for Watershed in year    4 of simulation

UNIT                                    PERCO    TILE                           WATER     SED     NO3     NO3     NO3     NO3        N       P       P
TIME     PREC    SURQ    LATQ     GWQ    LATE       Q     SW       ET     PET   YIELD   YIELD    SURQ    LATQ    PERC    CROP  ORGANIC SOLUBLE ORGANIC TILENO3
         (mm)    (mm)    (mm)    (mm)    (mm)    (mm)    (mm)    (mm)    (mm)    (mm)   (t/ha)  ------------------(kg nutrient/ha)-------------------- (kg/ha)
    1  211.40   41.26   62.81   47.81   92.09    0.00  120.06   14.13   14.13  153.04  125.26    0.00    0.13    1.96    0.00    21.81    0.00    2.67    0.00
    2  434.00  147.55  106.54   75.65  156.98    0.00  120.06   21.68   21.68  331.57  345.68    0.00    0.12    1.93    0.00     8.05    0.00    0.99    0.00
    3  258.50   55.44   71.68  111.97  100.14    0.00  120.09   31.92   32.05  242.33  113.81    0.00    0.06    0.81    0.00     0.28    0.00    0.03    0.00
    4   79.60    5.55   22.29   94.18   20.28    0.00  116.89   39.17   42.50  125.74   17.89    0.00    0.02    0.16    0.00     0.02    0.00    0.00    0.00
    5   41.00    1.34    4.89   57.59    1.58    0.00  110.29   39.89   51.10   67.23    3.47    0.00    0.00    0.01    0.00     0.00    0.00    0.00    0.00
    6   23.60    0.04    1.18   26.16    0.00    0.00  100.32   32.36   53.22   30.07    0.10    0.00    0.00    0.00    0.00     0.00    0.00    0.00    0.00
    7    6.90    0.00    0.03    9.87    0.00    0.00   90.58   16.63   54.41   12.05    0.00    0.00    0.00    0.00    0.00     0.00    0.00    0.00    0.00
    8   13.30    0.00    0.84    1.07    0.00    0.00   86.92   16.10   45.54    3.53    0.00    0.00    0.00    0.00    0.00     0.00    0.00    0.00    0.00
    9   15.70    0.05    1.21    0.12    0.00    0.00   86.47   14.88   36.84    2.54    0.10    0.00    0.00    0.00    0.00     0.00    0.00    0.00    0.00
   10   79.10    5.46   13.70    0.17    4.07    0.00  118.23   23.87   30.97   20.23   16.17    0.00    0.02    0.09    0.00     0.01    0.00    0.00    0.00
   11  122.50   24.58   30.03    3.73   47.10    0.00  120.03   14.80   14.92   58.84   81.35    0.00    0.10    1.17    0.00     0.09    0.00    0.01    0.00
   12  185.00   39.67   54.26   31.52   77.83    0.00  120.05   13.42   13.51  126.62  103.74    0.00    0.13    1.63    0.00     0.16    0.00    0.02    0.00

 1984 1470.60  320.94  369.47  459.83  500.07    0.00  120.05  278.86  410.88 1173.78  807.57    0.00    0.59    7.76    0.00    30.43    0.00    3.73    0.00
1
    SWAT Nov 14  VER 2023/Rev 692                                                   

    General Input/Output section (file.cio):                                        
    5/19/2025 12:00:00 AM ARCGIS-SWAT interface AV                                  
                                                                                    
Annual Summary for Watershed in year    5 of simulation

UNIT                                    PERCO    TILE                           WATER     SED     NO3     NO3     NO3     NO3        N       P       P
TIME     PREC    SURQ    LATQ     GWQ    LATE       Q     SW       ET     PET   YIELD   YIELD    SURQ    LATQ    PERC    CROP  ORGANIC SOLUBLE ORGANIC TILENO3
         (mm)    (mm)    (mm)    (mm)    (mm)    (mm)    (mm)    (mm)    (mm)    (mm)   (t/ha)  ------------------(kg nutrient/ha)-------------------- (kg/ha)
    1  162.30   23.72   51.18   52.45   73.91    0.00  120.08   13.07   13.07  128.87   62.70    0.00    0.09    1.23    0.00    15.01    0.00    1.84    0.00
    2  217.30   52.41   62.09   58.08   87.69    0.00  120.03   16.32   16.32  174.48  153.39    0.00    0.08    1.12    0.00    10.89    0.00    1.33    0.00
    3  192.10   34.33   51.28   73.73   72.69    0.00  120.10   32.07   34.51  161.75   76.15    0.00    0.05    0.76    0.00     1.54    0.00    0.19    0.00
    4   68.20    2.27   20.13   65.97   17.33    0.00  118.87   34.55   34.93   91.35    7.39    0.00    0.02    0.18    0.00     0.02    0.00    0.00    0.00
    5   23.50    0.24    1.98   42.36    0.00    0.00  108.58   31.74   47.58   47.19    0.75    0.00    0.00    0.00    0.00     0.00    0.00    0.00    0.00
    6   15.30    0.00    0.90   19.33    0.00    0.00   99.17   23.89   45.69   22.30    0.00    0.00    0.00    0.00    0.00     0.00    0.00    0.00    0.00
    7    7.50    0.00    0.05    6.43    0.00    0.00   90.60   16.03   44.64    8.13    0.00    0.00    0.00    0.00    0.00     0.00    0.00    0.00    0.00
    8   13.10    0.11    0.71    0.36    0.00    0.00   87.30   15.43   50.56    2.41    0.34    0.00    0.00    0.00    0.00     0.00    0.00    0.00    0.00
    9   28.20    0.09    2.75    0.02    0.00    0.00   92.18   20.42   42.43    3.75    0.30    0.00    0.00    0.00    0.00     0.00    0.00    0.00    0.00
   10   36.60    2.82    3.83    0.00    0.00    0.00  104.07   17.49   34.92    7.30   11.81    0.00    0.00    0.00    0.00     0.09    0.00    0.01    0.00
   11   60.70    9.31   11.93    0.27    5.42    0.00  118.54   19.85   23.75   22.04   26.75    0.00    0.03    0.14    0.00     0.26    0.00    0.03    0.00
   12  162.60   30.50   44.06    8.51   66.97    0.00  120.07   15.86   15.97   83.43   53.76    0.00    0.15    1.82    0.00     0.55    0.00    0.07    0.00

 1985  987.40  155.80  250.88  327.51  324.01    0.00  120.07  256.73  404.37  753.00  393.35    0.01    0.43    5.24    0.00    28.37    0.00    3.47    0.00
1
    SWAT Nov 14  VER 2023/Rev 692                                                   

    General Input/Output section (file.cio):                                        
    5/19/2025 12:00:00 AM ARCGIS-SWAT interface AV                                  
                                                                                    
Annual Summary for Watershed in year    6 of simulation

UNIT                                    PERCO    TILE                           WATER     SED     NO3     NO3     NO3     NO3        N       P       P
TIME     PREC    SURQ    LATQ     GWQ    LATE       Q     SW       ET     PET   YIELD   YIELD    SURQ    LATQ    PERC    CROP  ORGANIC SOLUBLE ORGANIC TILENO3
         (mm)    (mm)    (mm)    (mm)    (mm)    (mm)    (mm)    (mm)    (mm)    (mm)   (t/ha)  ------------------(kg nutrient/ha)-------------------- (kg/ha)
    1  296.10   72.62   84.46   41.41  123.79    0.00  120.04   14.60   14.61  199.50  197.54    0.00    0.17    2.39    0.00    26.65    0.00    3.26    0.00
    2  312.30   97.33   78.51   73.14  115.19    0.00  120.10   20.07   20.07  250.69  305.63    0.00    0.09    1.33    0.00     3.45    0.00    0.42    0.00
    3  182.80   22.07   59.91   98.31   77.67    0.00  116.63   31.06   31.89  183.41   46.46    0.00    0.05    0.69    0.00     0.09    0.00    0.01    0.00
    4  117.50   17.13   26.28   82.33   35.46    0.00  120.11   33.14   33.69  128.69   59.11    0.00    0.02    0.31    0.00     0.09    0.00    0.01    0.00
    5   35.30    0.69    8.47   55.19    4.43    0.00  109.48   35.53   55.56   67.70    1.31    0.00    0.01    0.04    0.00     0.02    0.00    0.00    0.00
    6   10.10    0.00    0.59   27.00    0.00    0.00   94.61   24.78   61.90   30.09    0.00    0.00    0.00    0.00    0.00     0.00    0.00    0.00    0.00
    7   16.80    0.00    0.78   10.98    0.00    0.00   89.17   21.44   54.52   13.77    0.00    0.00    0.00    0.00    0.00     0.00    0.00    0.00    0.00
    8   23.10    1.37    1.94    1.00    0.00    0.00   87.60   21.37   56.91    5.84    4.85    0.00    0.00    0.00    0.00     0.00    0.00    0.00    0.00
    9   25.00    0.28    2.22    0.05    0.00    0.00   90.83   19.23   38.41    3.65    0.64    0.00    0.00    0.00    0.00     0.00    0.00    0.00    0.00
   10   37.10    1.13    4.10    0.00    0.00    0.00  102.84   19.66   28.90    6.07    5.60    0.00    0.00    0.00    0.00     0.00    0.00    0.00    0.00
   11   61.50    7.11   13.01    1.13    6.69    0.00  117.82   19.94   21.61   21.88   14.36    0.00    0.03    0.15    0.00     0.03    0.00    0.00    0.00
   12  148.70   28.55   38.42    6.96   58.68    0.00  120.05   17.03   17.29   74.41   85.63    0.00    0.13    1.52    0.00     0.14    0.00    0.02    0.00

 1986 1266.30  248.26  318.69  397.51  421.90    0.00  120.05  277.84  435.36  985.70  721.14    0.01    0.51    6.43    0.00    30.46    0.00    3.73    0.00
1
    SWAT Nov 14  VER 2023/Rev 692                                                   

    General Input/Output section (file.cio):                                        
    5/19/2025 12:00:00 AM ARCGIS-SWAT interface AV                                  
                                                                                    
Annual Summary for Watershed in year    7 of simulation

UNIT                                    PERCO    TILE                           WATER     SED     NO3     NO3     NO3     NO3        N       P       P
TIME     PREC    SURQ    LATQ     GWQ    LATE       Q     SW       ET     PET   YIELD   YIELD    SURQ    LATQ    PERC    CROP  ORGANIC SOLUBLE ORGANIC TILENO3
         (mm)    (mm)    (mm)    (mm)    (mm)    (mm)    (mm)    (mm)    (mm)    (mm)   (t/ha)  ------------------(kg nutrient/ha)-------------------- (kg/ha)
    1  265.30   66.06   73.52   39.35  107.63    0.00  120.12   16.98   16.98  179.71  196.49    0.00    0.15    2.09    0.00    25.83    0.00    3.16    0.00
    2  224.90   67.75   57.95   66.27   81.54    0.00  120.07   18.79   18.79  193.98  145.66    0.00    0.07    1.07    0.00     2.80    0.00    0.34    0.00
    3   92.20   10.17   27.42   73.44   30.70    0.00  110.80   36.95   43.80  113.51   30.22    0.00    0.03    0.36    0.00     0.08    0.00    0.01    0.00
    4   34.80    4.80    3.59   45.88    0.87    0.00  107.58   28.78   40.04   56.57   25.50    0.00    0.00    0.01    0.00     0.07    0.00    0.01    0.00
    5   14.40    0.03    0.85   22.65    0.00    0.00   95.21   25.88   63.85   25.52    0.14    0.00    0.00    0.00    0.00     0.00    0.00    0.00    0.00
    6    8.30    0.00    0.08    7.66    0.00    0.00   87.23   16.20   57.09    9.24    0.00    0.00    0.00    0.00    0.00     0.00    0.00    0.00    0.00
    7   10.30    0.00    0.34    0.66    0.00    0.00   80.22   16.98   54.66    2.17    0.00    0.00    0.00    0.00    0.00     0.00    0.00    0.00    0.00
    8   14.90    0.00    0.97    0.01    0.00    0.00   76.70   17.42   64.51    1.85    0.00    0.00    0.00    0.00    0.00     0.00    0.00    0.00    0.00
    9   23.50    0.09    2.02    0.00    0.00    0.00   79.81   18.20   49.29    2.74    0.35    0.00    0.00    0.00    0.00     0.00    0.00    0.00    0.00
   10   34.40    1.14    4.15    0.00    0.00    0.00   90.73   18.25   28.08    5.78    2.57    0.00    0.00    0.00    0.00     0.00    0.00    0.00    0.00
   11   82.70    4.27   18.43    0.09   10.56    0.00  120.00   18.96   20.10   23.13   11.81    0.00    0.06    0.33    0.00     0.01    0.00    0.00    0.00
   12  113.70   10.49   37.34   11.82   51.99    0.00  119.93   14.33   14.49   60.12   26.57    0.00    0.13    1.57    0.00     0.05    0.00    0.01    0.00

 1987  919.40  164.80  226.67  267.83  283.29    0.00  119.93  247.73  471.66  674.32  439.32    0.00    0.45    5.42    0.00    28.86    0.00    3.53    0.00
1
    SWAT Nov 14  VER 2023/Rev 692                                                   

    General Input/Output section (file.cio):                                        
    5/19/2025 12:00:00 AM ARCGIS-SWAT interface AV                                  
                                                                                    
Annual Summary for Watershed in year    8 of simulation

UNIT                                    PERCO    TILE                           WATER     SED     NO3     NO3     NO3     NO3        N       P       P
TIME     PREC    SURQ    LATQ     GWQ    LATE       Q     SW       ET     PET   YIELD   YIELD    SURQ    LATQ    PERC    CROP  ORGANIC SOLUBLE ORGANIC TILENO3
         (mm)    (mm)    (mm)    (mm)    (mm)    (mm)    (mm)    (mm)    (mm)    (mm)   (t/ha)  ------------------(kg nutrient/ha)-------------------- (kg/ha)
    1  186.60   28.23   56.10   31.98   83.33    0.00  120.02   16.70   16.70  117.12   68.84    0.00    0.14    2.03    0.00    15.32    0.00    1.87    0.00
    2  190.60   57.27   47.61   56.16   62.77    0.00  120.00   25.57   25.90  162.50  206.33    0.00    0.08    1.09    0.00    12.73    0.00    1.56    0.00
    3  149.20   27.68   34.61   58.68   48.45    0.00  120.02   36.22   37.46  122.78   72.87    0.00    0.05    0.75    0.00     0.48    0.00    0.06    0.00
    4   87.10    8.53   22.02   47.54   22.80    0.00  118.36   37.86   40.02   80.26   20.97    0.00    0.03    0.34    0.00     0.08    0.00    0.01    0.00
    5   26.40    0.30    2.48   31.79    0.00    0.00  105.44   36.63   63.69   36.51    1.00    0.00    0.00    0.00    0.00     0.00    0.00    0.00    0.00
    6    6.40    0.00    0.21   14.47    0.00    0.00   93.11   18.63   58.38   16.22    0.00    0.00    0.00    0.00    0.00     0.00    0.00    0.00    0.00
    7    5.90    0.00    0.11    2.89    0.00    0.00   81.37   17.53   68.18    4.23    0.00    0.00    0.00    0.00    0.00     0.00    0.00    0.00    0.00
    8    9.60    0.00    0.52    0.11    0.00    0.00   77.89   12.52   55.15    1.55    0.00    0.00    0.00    0.00    0.00     0.00    0.00    0.00    0.00
    9   21.10    0.09    1.71    0.00    0.00    0.00   80.54   16.64   39.87    2.47    0.37    0.00    0.00    0.00    0.00     0.00    0.00    0.00    0.00
   10   37.40    0.94    4.69    0.00    0.00    0.00   95.44   16.87   25.66    6.15    2.89    0.00    0.00    0.00    0.00     0.00    0.00    0.00    0.00
   11   59.40    2.18   11.40    0.03    2.23    0.00  119.60   18.57   19.26   13.98    4.20    0.00    0.03    0.06    0.00     0.00    0.00    0.00    0.00
   12  129.90   15.59   40.07    5.11   58.20    0.00  119.99   14.31   15.22   61.12   35.05    0.00    0.15    1.83    0.00     0.11    0.00    0.01    0.00

 1988  909.60  140.80  221.53  248.74  277.78    0.00  119.99  268.04  465.49  624.88  412.51    0.00    0.48    6.10    0.00    28.73    0.00    3.51    0.00
1
    SWAT Nov 14  VER 2023/Rev 692                                                   

    General Input/Output section (file.cio):                                        
    5/19/2025 12:00:00 AM ARCGIS-SWAT interface AV                                  
                                                                                    
Annual Summary for Watershed in year    9 of simulation

UNIT                                    PERCO    TILE                           WATER     SED     NO3     NO3     NO3     NO3        N       P       P
TIME     PREC    SURQ    LATQ     GWQ    LATE       Q     SW       ET     PET   YIELD   YIELD    SURQ    LATQ    PERC    CROP  ORGANIC SOLUBLE ORGANIC TILENO3
         (mm)    (mm)    (mm)    (mm)    (mm)    (mm)    (mm)    (mm)    (mm)    (mm)   (t/ha)  ------------------(kg nutrient/ha)-------------------- (kg/ha)
    1  251.30   59.98   70.48   35.90  103.28    0.00  120.05   16.43   16.43  167.19  199.79    0.00    0.16    2.39    0.00    25.13    0.00    3.07    0.00
    2  280.20   83.40   73.45   64.77  103.71    0.00  120.01   21.10   21.10  223.16  249.36    0.00    0.10    1.50    0.00     3.79    0.00    0.46    0.00
    3  232.70   37.06   66.69   88.20   96.59    0.00  120.06   30.41   30.51  194.46   89.21    0.00    0.07    1.00    0.00     0.20    0.00    0.03    0.00
    4   60.00    3.00   14.93   78.09   10.56    0.00  116.59   38.67   43.02   98.95    6.23    0.00    0.01    0.10    0.00     0.01    0.00    0.00    0.00
    5   16.70    0.09    1.10   46.94    0.00    0.00  106.40   25.69   43.32   50.89    0.31    0.00    0.00    0.00    0.00     0.00    0.00    0.00    0.00
    6    9.30    0.00    0.32   20.81    0.00    0.00   94.31   21.19   55.18   23.30    0.00    0.00    0.00    0.00    0.00     0.00    0.00    0.00    0.00
    7    4.60    0.00    0.00    6.48    0.00    0.00   84.80   14.11   71.11    8.21    0.00    0.00    0.00    0.00    0.00     0.00    0.00    0.00    0.00
    8   10.90    0.00    0.23    0.53    0.00    0.00   78.73   16.74   50.84    2.06    0.00    0.00    0.00    0.00    0.00     0.00    0.00    0.00    0.00
    9   19.00    0.02    1.52    0.01    0.00    0.00   81.37   14.63   39.79    2.49    0.07    0.00    0.00    0.00    0.00     0.00    0.00    0.00    0.00
   10   71.10    1.74   11.59    0.01    0.72    0.00  114.28   23.69   28.25   14.05    4.78    0.00    0.01    0.01    0.00     0.00    0.00    0.00    0.00
   11   61.40    5.64   14.91    2.86   15.06    0.00  120.00   19.91   21.16   23.97   17.01    0.00    0.04    0.38    0.00     0.02    0.00    0.00    0.00
   12   38.40    1.66    9.64    6.60    8.96    0.00  117.54   21.22   28.40   18.45    6.18    0.00    0.03    0.25    0.00     0.00    0.00    0.00    0.00

 1989 1055.60  192.59  264.85  351.19  338.88    0.00  117.54  263.78  449.13  827.19  572.93    0.00    0.43    5.63    0.00    29.14    0.00    3.56    0.00
1
    SWAT Nov 14  VER 2023/Rev 692                                                   

    General Input/Output section (file.cio):                                        
    5/19/2025 12:00:00 AM ARCGIS-SWAT interface AV                                  
                                                                                    
Annual Summary for Watershed in year   10 of simulation

UNIT                                    PERCO    TILE                           WATER     SED     NO3     NO3     NO3     NO3        N       P       P
TIME     PREC    SURQ    LATQ     GWQ    LATE       Q     SW       ET     PET   YIELD   YIELD    SURQ    LATQ    PERC    CROP  ORGANIC SOLUBLE ORGANIC TILENO3
         (mm)    (mm)    (mm)    (mm)    (mm)    (mm)    (mm)    (mm)    (mm)    (mm)   (t/ha)  ------------------(kg nutrient/ha)-------------------- (kg/ha)
    1  138.70   12.02   43.41   14.95   62.85    0.00  120.02   16.31   16.37   70.98   26.43    0.00    0.14    1.68    0.00     8.27    0.00    1.01    0.00
    2   73.20    7.99   20.26   28.49   27.22    0.00  120.01   17.40   19.27   57.56   27.74    0.00    0.05    0.65    0.00     3.38    0.00    0.41    0.00
    3   67.90    5.77   17.08   32.07   17.23    0.00  116.74   32.92   37.94   56.09   15.45    0.00    0.03    0.39    0.00     1.38    0.00    0.17    0.00
    4   49.80    4.73    9.59   22.76    8.77    0.00  108.85   34.92   45.59   38.18   19.59    0.00    0.02    0.21    0.00     1.75    0.00    0.21    0.00
    5   27.00    0.41    2.42   14.17    0.00    0.00  104.47   28.47   52.17   18.01    1.77    0.00    0.00    0.00    0.00     0.03    0.00    0.00    0.00
    6   21.50    0.18    1.68    4.08    0.00    0.00  102.30   21.78   41.54    6.73    0.68    0.00    0.00    0.00    0.00     0.01    0.00    0.00    0.00
    7    8.10    0.00    0.12    0.21    0.00    0.00   88.32   22.08   61.41    0.96    0.00    0.00    0.00    0.00    0.00     0.00    0.00    0.00    0.00
    8   12.10    0.02    0.63    0.00    0.00    0.00   84.43   15.30   45.53    1.12    0.06    0.00    0.00    0.00    0.00     0.00    0.00    0.00    0.00
    9   19.60    0.00    1.42    0.00    0.00    0.00   84.59   18.01   38.49    1.76    0.01    0.00    0.00    0.00    0.00     0.00    0.00    0.00    0.00
   10   58.40    1.31    8.77    0.00    0.43    0.00  111.22   20.75   29.77   10.34    3.56    0.00    0.01    0.01    0.00     0.08    0.00    0.01    0.00
   11    2.40    0.00    0.46    0.00    0.00    0.00  112.54    0.86    1.25    0.47    0.00    0.00    0.00    0.00    0.00     0.00    0.00    0.00    0.00

 1990  478.70   32.41  105.85  116.73  116.51    0.00  112.54  228.79  389.31  262.21   95.28    0.00    0.25    2.93    0.00    14.90    0.00    1.82    0.00
1
    SWAT Nov 14  VER 2023/Rev 692                                                   

    General Input/Output section (file.cio):                                        
    5/19/2025 12:00:00 AM ARCGIS-SWAT interface AV                                  
                                                                                    
    FINAL VALUES

1
    SWAT Nov 14  VER 2023/Rev 692                                                   

    General Input/Output section (file.cio):                                        
    5/19/2025 12:00:00 AM ARCGIS-SWAT interface AV                                  
                                                                                    
                                            Average Plant Values (kg/ha)

  HRU       1 SUB   1 PJNL  Yld =     0.0 BIOM =      0.4
  HRU       2 SUB   1 PJNL  Yld =     0.0 BIOM =      0.4
  HRU       3 SUB   1 WETN  Yld =     0.0 BIOM =      0.0
  HRU       4 SUB   1 BARR  Yld =     0.0 BIOM =      0.0
  HRU       5 SUB   1 BARR  Yld =     0.0 BIOM =      0.0
  HRU       6 SUB   2 WETN  Yld =     0.0 BIOM =      0.0
  HRU       7 SUB   2 PJNL  Yld =     0.0 BIOM =      0.4
  HRU       8 SUB   2 PJNL  Yld =     0.0 BIOM =      0.4
  HRU       9 SUB   2 BARR  Yld =     0.0 BIOM =      0.0
  HRU      10 SUB   2 BARR  Yld =     0.0 BIOM =      0.0
  HRU      11 SUB   3 PJNL  Yld =     0.0 BIOM =      0.4
  HRU      12 SUB   3 PJNL  Yld =     0.0 BIOM =      0.4
  HRU      13 SUB   3 BARR  Yld =     0.0 BIOM =      0.0
  HRU      14 SUB   3 BARR  Yld =     0.0 BIOM =      0.0
  HRU      15 SUB   3 WETN  Yld =     0.0 BIOM =      0.0
  HRU      16 SUB   3 ES10  Yld =     0.0 BIOM =      0.0
  HRU      17 SUB   3 ES9   Yld =     0.0 BIOM =      0.0
  HRU      18 SUB   3 ES9   Yld =     0.0 BIOM =      0.0
  HRU      19 SUB   3 ES11  Yld =     0.0 BIOM =      0.0
  HRU      20 SUB   3 ES12  Yld =     0.0 BIOM =      0.0
  HRU      21 SUB   3 ES13  Yld =     0.0 BIOM =      0.0

    HRU STATISTICS

                AVE ANNUAL VALUES

   HRU  SUB  SOIL       AREAkm2    CN     AWCmm   USLE_LS  IRRmm  AUTONkh AUTOPkh  MIXEF PRECmm SURQGENmm   GWQmm    ETmm   SEDth  NO3kgh  ORGNkgh BIOMth   YLDth  SURQmm
      1   1   I-Bh-Tv-   .138E+01   79.00  120.00    7.86    0.00    0.00    0.00    0.21 1015.17  108.29  618.62  258.71  396.89    0.81   46.97    0.00    0.00  108.29
      2   1   I-Bh-Tv-   .336E-01   79.00  120.00    0.07    0.00    0.00    0.00    0.21 1015.17  109.90  594.86  263.78    0.48    0.00    6.05    0.00    0.00  109.90
      3   1   I-Bh-Tv-   .717E-01   79.00  120.00    0.07    0.00    0.00    0.00    0.21 1015.17  109.95  596.82  261.50    0.81    0.00    9.30    0.00    0.00  109.95
      4   1   I-Bh-Tv-   .230E+00   91.00  120.00    9.50    0.00    0.00    0.00    0.21 1015.17  340.28  399.31  253.11 1182.14    0.89   50.08    0.00    0.00  340.28
      5   1   I-Bh-Tv-   .250E-02   91.00  120.00    0.07    0.00    0.00    0.00    0.21 1015.17  342.44  378.41  259.39    1.31    0.02   13.96    0.00    0.00  342.42
      6   2   I-Bh-Tv-   .225E+00   79.00  120.00    0.07    0.00    0.00    0.00    0.21 1015.17  109.94  596.41  261.92    0.93    0.00   10.38    0.00    0.00  109.94
      7   2   I-Bh-Tv-   .909E+00   79.00  120.00    4.45    0.00    0.00    0.00    0.21 1015.17  108.41  612.97  260.52  215.05    0.61   45.81    0.00    0.00  108.41
      8   2   I-Bh-Tv-   .272E-01   79.00  120.00    0.07    0.00    0.00    0.00    0.21 1015.17  109.89  594.44  264.23    0.47    0.00    5.91    0.00    0.00  109.89
      9   2   I-Bh-Tv-   .106E+01   91.00  120.00    6.50    0.00    0.00    0.00    0.21 1015.17  340.59  395.49  254.79  957.11    0.74   49.98    0.00    0.00  340.59
     10   2   I-Bh-Tv-   .688E-02   91.00  120.00    0.07    0.00    0.00    0.00    0.21 1015.17  342.42  378.03  259.80    1.48    0.02   15.28    0.00    0.00  342.41
     11   3   I-Bh-Tv-   .128E+01   79.00  120.00    7.36    0.00    0.00    0.00    0.21 1015.17  108.29  617.40  259.47  367.40    0.78   46.83    0.00    0.00  108.29
     12   3   I-Bh-Tv-   .198E-01   79.00  120.00    0.07    0.00    0.00    0.00    0.21 1015.17  109.89  594.32  264.36    0.45    0.00    5.71    0.00    0.00  109.89
     13   3   I-Bh-Tv-   .426E+00   91.00  120.00    8.04    0.00    0.00    0.00    0.21 1015.17  340.41  397.23  254.24 1071.81    0.82   50.04    0.00    0.00  340.41
     14   3   I-Bh-Tv-   .297E-02   91.00  120.00    0.07    0.00    0.00    0.00    0.21 1015.17  342.41  377.92  259.92    1.34    0.02   14.18    0.00    0.00  342.40
     15   3   I-Bh-Tv-   .256E-01   79.00  120.00    0.07    0.00    0.00    0.00    0.21 1015.17  109.94  596.30  262.04    0.72    0.00    8.39    0.00    0.00  109.94
     16   3   I-Bh-Tv-   .337E-01   91.00  120.00    6.34    0.00    0.00    0.00    0.21 1015.17  340.60  395.19  254.97  629.29    0.73   49.62    0.00    0.00  340.60
     17   3   I-Bh-Tv-   .156E-01   91.00  120.00    6.52    0.00    0.00    0.00    0.21 1015.17  340.58  395.41  254.90  589.99    0.74   49.54    0.00    0.00  340.58
     18   3   I-Bh-Tv-   .313E-03   91.00  120.00    0.07    0.00    0.00    0.00    0.21 1015.17  342.41  377.92  259.92    1.00    0.02   11.29    0.00    0.00  342.40
     19   3   I-Bh-Tv-   .183E-01   91.00  120.00   10.83    0.00    0.00    0.00    0.21 1015.17  340.10  400.23  253.06  999.51    0.95   50.00    0.00    0.00  340.10
     20   3   I-Bh-Tv-   .688E-02   91.00  120.00   14.52    0.00    0.00    0.00    0.21 1015.17  339.68  403.81  251.56 1191.56    1.10   50.08    0.00    0.00  339.68
     21   3   I-Bh-Tv-   .187E-02   91.00  120.00   15.10    0.00    0.00    0.00    0.21 1015.17  339.61  404.35  251.33 1060.76    1.12   50.03    0.00    0.00  339.61



                AVE MONTHLY BASIN VALUES
                   SNOW                      WATER               SED
  MON     RAIN     FALL   SURF Q    LAT Q    YIELD       ET    YIELD      PET
          (MM)     (MM)     (MM)     (MM)     (MM)     (MM)   (T/HA)     (MM)
    1   207.81     0.00    41.12    60.84   140.45    15.41   117.39    15.41
    2   246.76     0.00    75.07    62.81   197.98    20.67   228.81    20.99
    3   174.82     0.00    31.74    47.77   157.41    32.62    82.21    34.54
    4    72.33     0.00     7.27    17.84    88.47    33.61    24.14    39.06
    5    23.22     0.00     0.35     2.55    40.88    29.84     1.03    52.90
    6    12.25     0.00     0.02     0.59    18.31    21.32     0.08    54.07
    7     8.30     0.01     0.00     0.16     6.58    16.96     0.00    58.06
    8    13.91     0.00     0.15     0.79     2.39    16.00     0.53    50.94
    9    22.79     0.00     0.12     1.92     2.80    17.47     0.37    41.01
   10    52.63     0.00     2.00     7.74    10.32    19.94     6.55    29.49
   11    81.42     0.00     9.28    19.43    30.82    18.51    28.55    20.14
   12   139.47     0.00    23.42    40.20    77.21    16.08    59.70    17.19

     AVE ANNUAL BASIN STRESS DAYS
               WATER STRESS DAYS =     2.22
               TEMPERATURE STRESS DAYS =   146.15
               NITROGEN STRESS DAYS =     0.00
               PHOSPHORUS STRESS DAYS =     0.00
               AERATION STRESS DAYS =     0.00
1
    SWAT Nov 14  VER 2023/Rev 692                                                   

    General Input/Output section (file.cio):                                        
    5/19/2025 12:00:00 AM ARCGIS-SWAT interface AV                                  
                                                                                    
         AVE ANNUAL BASIN VALUES

              PRECIP =   1015.2 MM
              SNOW FALL =    0.01 MM
              SNOW MELT =     0.01 MM
              SUBLIMATION =     0.00 MM
              SURFACE RUNOFF Q =   180.98 MM
              LATERAL SOIL Q =  250.52 MM
              TILE Q =     0.00 MM
              GROUNDWATER (SHAL AQ) Q =   295.92 MM
              GROUNDWATER (DEEP AQ) Q =    15.95 MM
              REVAP (SHAL AQ => SOIL/PLANTS) =    8.82 MM
              DEEP AQ RECHARGE =    16.03 MM
              TOTAL AQ RECHARGE =  320.57 MM
              TOTAL WATER YLD =   743.38 MM
              PERCOLATION OUT OF SOIL =  320.61 MM
              ET =    258.1 MM
              PET =    441.1MM
              TRANSMISSION LOSSES =     0.00 MM
              SEPTIC INFLOW =     0.00 MM
              TOTAL SEDIMENT LOADING =    522.08 T/HA
              TILE FROM IMPOUNDED WATER =     0.000 (MM)
              EVAPORATION FROM IMPOUNDED WATER =     0.000 (MM)
              SEEPAGE INTO SOIL FROM IMPOUNDED WATER =    0.000 (MM)
              OVERFLOW FROM IMPOUNDED WATER =    0.000 (MM)
1
    SWAT Nov 14  VER 2023/Rev 692                                                   

    General Input/Output section (file.cio):                                        
    5/19/2025 12:00:00 AM ARCGIS-SWAT interface AV                                  
                                                                                    
              AVE ANNUAL BASIN VALUES


              NUTRIENTS
                   ORGANIC N =    44.991 (KG/HA)
                   ORGANIC P =     5.508 (KG/HA)
                   NO3 YIELD (SQ) =     0.006 (KG/HA)
                   NO3 YIELD (LAT) =    0.698 (KG/HA)
                   NO3 YIELD (TILE) =      0.000 (KG/HA)
                   SOLP YIELD (TILE) =    0.000(KG/HA)
                   SOLP YIELD (SURF INLET RISER) =    0.000 (KG/HA)
                   SOL P YIELD =    0.004 (KG/HA)
                   NO3 LEACHED =     8.553 (KG/HA)
                   P LEACHED =     0.134 (KG/HA)
                   N UPTAKE =     0.000 (KG/HA)
                   P UPTAKE =    0.000 (KG/HA)
                   NO3 YIELD (GWQ) =     0.113 (KG/HA)
                   ACTIVE TO SOLUTION P FLOW =         1.922 (KG/HA)
                   ACTIVE TO STABLE P FLOW =         4.247 (KG/HA)
                   N FERTILIZER APPLIED =     0.000 (KG/HA)
                   P FERTILIZER APPLIED =     0.000 (KG/HA)
                   N FIXATION =     0.000 (KG/HA)
                   DENITRIFICATION =     0.000 (KG/HA)
                   HUMUS MIN ON ACTIVE ORG N =     7.935 (KG/HA)
                   ACTIVE TO STABLE ORG N =    -4.149 (KG/HA)
                   HUMUS MIN ON ACTIVE ORG P =    1.359 (KG/HA)
                   MIN FROM FRESH ORG N =    0.000 (KG/HA)
                   MIN FROM FRESH ORG P =    0.000 (KG/HA)
                   NO3 IN RAINFALL =       0.000 (KG/HA)
                   INITIAL NO3 IN SOIL =      35.560 (KG/HA)
                   FINAL NO3 IN SOIL =         9.023 (KG/HA)
                   INITIAL ORG N IN SOIL =   12599.999 (KG/HA)
                   FINAL ORG N IN SOIL =     12095.240 (KG/HA)
                   INITIAL MIN P IN SOIL =    1789.938 (KG/HA)
                   FINAL MIN P IN SOIL =      1758.050 (KG/HA)
                   INITIAL ORG P IN SOIL =    1543.500 (KG/HA)
                   FINAL ORG P IN SOIL =    1478.011 (KG/HA)
                   NO3 IN FERT =     0.000 (KG/HA)
                   AMMONIA IN FERT =     0.000 (KG/HA)
                   ORG N IN FERT =     0.000 (KG/HA)
                   MINERAL P IN FERT =     0.000 (KG/HA)
                   ORG P IN FERT =     0.000 (KG/HA)
                   N REMOVED IN YIELD =     0.000 (KG/HA)
                   P REMOVED IN YIELD =     0.000 (KG/HA)
                   AMMONIA VOLATILIZATION =     0.000 (KG/HA)
                   AMMONIA NITRIFICATION =      0.000 (KG/HA)
                   NO3 EVAP-LAYER 2 TO 1 =    0.994

                   DIE-GRO P Q =           0.0 (No/M2)
                   DIE-GRO LP Q =           0.0 (No/M2)
                   DIE-GRO P SED =          0.0 (No/M2)
                   DIE-GRO LP SED =          0.0 (No/M2)
                   BACT P RUNOFF =          0.0 (No/M2)
                   BACT LP RUNOFF =          0.0 (No/M2)
                   BACT P SEDIMENT =          0.0 (No/M2)
                   BACT LP SEDIMENT =          0.0 (No/M2)
                   BACT P INCORP =          0.0 (No/M2)
                   BACT LP INCORP =          0.0 (No/M2)

                   NITRATE SEPTIC =         0.00 (kg/ha)
                   AMMONIA SEPTIC =         0.00 (kg/ha)
                   ORG N SEPTIC =         0.00 (kg/ha)
                   FRESH ORGN SEPTIC =         0.00 (kg/ha)
                   ORG P SEPTIC =         0.00 (kg/ha)
                   FRESH ORGP SEPTIC =         0.00 (kg/ha)
                   SOL P SEPTIC =         0.00 (kg/ha)
                   BOD SEPTIC =         0.00 (kg/ha)
