1
    SWAT Nov 14  VER 2023/Rev 692                                                                        0/ 0/   0      0: 0: 0

    General Input/Output section (file.cio):                                        
    5/19/2025 12:00:00 AM ARCGIS-SWAT interface AV                                  
                                                                                    


       RCH      GIS   MON     AREAkm2  FLOW_INcms FLOW_OUTcms     EVAPcms    TLOSScms  SED_INtons SED_OUTtons SEDCONCmg/L   ORGN_INkg  ORGN_OUTkg   ORGP_INkg  ORGP_OUTkg    NO3_INkg   NO3_OUTkg    NH4_INkg   NH4_OUTkg    NO2_INkg   NO2_OUTkg   MINP_INkg  MINP_OUTkg   CHLA_INkg  CHLA_OUTkg   CBOD_INkg  CBOD_OUTkg  DISOX_INkg DISOX_OUTkg SOLPST_INmgSOLPST_OUTmg SORPST_INmgSORPST_OUTmg  REACTPSTmg    VOLPSTmg  SETTLPSTmgRESUSP_PSTmgDIFFUSEPSTmgREACBEDPSTmg   BURYPSTmg   BED_PSTmg BACTP_OUTctBACTLP_OUTct  CMETAL#1kg  CMETAL#2kg  CMETAL#3kg     TOT Nkg     TOT Pkg NO3ConcMg/l    WTMPdegc     Salt1       Salt2       Salt3       Salt4       Salt5       Salt6       Salt7       Salt8       Salt9       Salt10       SAR           EC  
REACH    1        0     4  0.5790E+01  0.1200E-03  0.5751E-04  0.6254E-04  0.0000E+00  0.7896E-07  0.0000E+00  0.0000E+00  0.2468E-05  0.5653E-06  0.7196E-05  0.1434E-05  0.1834E+00  0.8789E-01  0.1061E-02  0.1694E-02  0.0000E+00  0.1532E-03  0.4488E-05  0.7298E-05  0.3091E-10  0.0000E+00  0.0000E+00  0.0000E+00  0.1200E+01  0.5715E+00  0.0000E+00  0.0000E+00  0.0000E+00  0.0000E+00  0.0000E+00  0.0000E+00  0.0000E+00  0.0000E+00  0.0000E+00  0.0000E+00  0.0000E+00  0.0000E+00  0.0000E+00  0.0000E+00  0.0000E+00  0.0000E+00  0.0000E+00  0.8974E-01  0.8732E-05  0.0000E+00  0.0000E+00  0.0000E+00  0.0000E+00  0.0000E+00  0.0000E+00  0.0000E+00  0.0000E+00  0.0000E+00  0.0000E+00  0.0000E+00  0.0000E+00  0.0000E+00  0.0000E+00
REACH    2        0     4  0.2233E+01  0.5238E-04  0.2859E-04  0.2378E-04  0.0000E+00  0.3199E-07  0.1280E-07  0.1088E-02  0.2105E-05  0.3622E-06  0.6314E-05  0.9831E-06  0.8002E-01  0.4370E-01  0.0000E+00  0.5232E-03  0.0000E+00  0.0000E+00  0.2107E-05  0.1291E-05  0.4728E-10  0.0000E+00  0.0000E+00  0.0000E+00  0.5264E+00  0.2844E+00  0.0000E+00  0.0000E+00  0.0000E+00  0.0000E+00  0.0000E+00  0.0000E+00  0.0000E+00  0.0000E+00  0.0000E+00  0.0000E+00  0.0000E+00  0.0000E+00  0.0000E+00  0.0000E+00  0.0000E+00  0.0000E+00  0.0000E+00  0.4422E-01  0.2274E-05  0.0000E+00  0.0000E+00  0.0000E+00  0.0000E+00  0.0000E+00  0.0000E+00  0.0000E+00  0.0000E+00  0.0000E+00  0.0000E+00  0.0000E+00  0.0000E+00  0.0000E+00  0.0000E+00
REACH    3        0     4  0.1834E+01  0.5552E-04  0.3824E-04  0.1729E-04  0.0000E+00  0.8540E-07  0.3416E-07  0.6609E-03  0.1807E-05  0.4410E-06  0.5421E-05  0.1218E-05  0.8486E-01  0.5845E-01  0.0000E+00  0.5379E-03  0.0000E+00  0.0000E+00  0.1809E-05  0.1531E-05  0.3623E-10  0.0000E+00  0.0000E+00  0.0000E+00  0.5581E+00  0.3802E+00  0.0000E+00  0.0000E+00  0.0000E+00  0.0000E+00  0.0000E+00  0.0000E+00  0.0000E+00  0.0000E+00  0.0000E+00  0.0000E+00  0.0000E+00  0.0000E+00  0.0000E+00  0.0000E+00  0.0000E+00  0.0000E+00  0.0000E+00  0.5899E-01  0.2748E-05  0.0000E+00  0.0000E+00  0.0000E+00  0.0000E+00  0.0000E+00  0.0000E+00  0.0000E+00  0.0000E+00  0.0000E+00  0.0000E+00  0.0000E+00  0.0000E+00  0.0000E+00  0.0000E+00
REACH    1        0     5  0.5790E+01  0.8701E-03  0.8064E-03  0.4800E-04  0.0000E+00  0.2465E-06  0.0000E+00  0.0000E+00  0.9489E-05  0.4688E-05  0.2842E-04  0.1457E-04  0.5672E+01  0.5260E+01  0.4576E-02  0.1500E-01  0.3995E-05  0.2043E-03  0.2264E-04  0.1040E-03  0.5203E-09  0.0000E+00  0.0000E+00  0.0000E+00  0.2638E+02  0.2436E+02  0.0000E+00  0.0000E+00  0.0000E+00  0.0000E+00  0.0000E+00  0.0000E+00  0.0000E+00  0.0000E+00  0.0000E+00  0.0000E+00  0.0000E+00  0.0000E+00  0.0000E+00  0.0000E+00  0.0000E+00  0.0000E+00  0.0000E+00  0.5275E+01  0.1186E-03  0.0000E+00  0.0000E+00  0.0000E+00  0.0000E+00  0.0000E+00  0.0000E+00  0.0000E+00  0.0000E+00  0.0000E+00  0.0000E+00  0.0000E+00  0.0000E+00  0.0000E+00  0.0000E+00
REACH    2        0     5  0.2233E+01  0.2953E-03  0.2725E-03  0.1768E-04  0.0000E+00  0.9917E-07  0.1919E-07  0.9417E-03  0.6525E-05  0.2290E-05  0.1957E-04  0.6550E-05  0.1918E+01  0.1771E+01  0.0000E+00  0.1715E-02  0.0000E+00  0.3691E-05  0.6532E-05  0.1086E-04  0.5873E-09  0.0000E+00  0.0000E+00  0.0000E+00  0.9012E+01  0.8232E+01  0.0000E+00  0.0000E+00  0.0000E+00  0.0000E+00  0.0000E+00  0.0000E+00  0.0000E+00  0.0000E+00  0.0000E+00  0.0000E+00  0.0000E+00  0.0000E+00  0.0000E+00  0.0000E+00  0.0000E+00  0.0000E+00  0.0000E+00  0.1773E+01  0.1741E-04  0.0000E+00  0.0000E+00  0.0000E+00  0.0000E+00  0.0000E+00  0.0000E+00  0.0000E+00  0.0000E+00  0.0000E+00  0.0000E+00  0.0000E+00  0.0000E+00  0.0000E+00  0.0000E+00
REACH    3        0     5  0.1834E+01  0.3143E-03  0.3018E-03  0.1249E-04  0.0000E+00  0.2647E-06  0.1281E-06  0.3987E-03  0.5601E-05  0.2038E-05  0.1680E-04  0.6388E-05  0.2055E+01  0.1972E+01  0.0000E+00  0.2861E-02  0.0000E+00  0.3038E-06  0.5607E-05  0.6614E-05  0.5829E-09  0.0000E+00  0.0000E+00  0.0000E+00  0.9596E+01  0.9119E+01  0.0000E+00  0.0000E+00  0.0000E+00  0.0000E+00  0.0000E+00  0.0000E+00  0.0000E+00  0.0000E+00  0.0000E+00  0.0000E+00  0.0000E+00  0.0000E+00  0.0000E+00  0.0000E+00  0.0000E+00  0.0000E+00  0.0000E+00  0.1975E+01  0.1300E-04  0.0000E+00  0.0000E+00  0.0000E+00  0.0000E+00  0.0000E+00  0.0000E+00  0.0000E+00  0.0000E+00  0.0000E+00  0.0000E+00  0.0000E+00  0.0000E+00  0.0000E+00  0.0000E+00
REACH    1        0     6  0.5790E+01  0.8013E-03  0.7263E-03  0.9121E-04  0.0000E+00  0.3223E-06  0.0000E+00  0.0000E+00  0.9975E-05  0.4737E-05  0.3017E-04  0.1448E-04  0.4153E+01  0.3752E+01  0.4211E-02  0.1297E-01  0.1770E-05  0.2083E-03  0.2499E-04  0.1116E-03  0.2654E-09  0.0000E+00  0.0000E+00  0.0000E+00  0.2410E+02  0.2176E+02  0.0000E+00  0.0000E+00  0.0000E+00  0.0000E+00  0.0000E+00  0.0000E+00  0.0000E+00  0.0000E+00  0.0000E+00  0.0000E+00  0.0000E+00  0.0000E+00  0.0000E+00  0.0000E+00  0.0000E+00  0.0000E+00  0.0000E+00  0.3766E+01  0.1261E-03  0.0000E+00  0.0000E+00  0.0000E+00  0.0000E+00  0.0000E+00  0.0000E+00  0.0000E+00  0.0000E+00  0.0000E+00  0.0000E+00  0.0000E+00  0.0000E+00  0.0000E+00  0.0000E+00
REACH    2        0     6  0.2233E+01  0.2769E-03  0.2512E-03  0.3102E-04  0.0000E+00  0.9597E-07  0.3839E-07  0.1341E-02  0.6314E-05  0.2441E-05  0.1894E-04  0.7483E-05  0.1421E+01  0.1286E+01  0.0000E+00  0.1283E-02  0.0000E+00  0.1608E-05  0.6321E-05  0.1148E-04  0.4018E-09  0.0000E+00  0.0000E+00  0.0000E+00  0.8386E+01  0.7530E+01  0.0000E+00  0.0000E+00  0.0000E+00  0.0000E+00  0.0000E+00  0.0000E+00  0.0000E+00  0.0000E+00  0.0000E+00  0.0000E+00  0.0000E+00  0.0000E+00  0.0000E+00  0.0000E+00  0.0000E+00  0.0000E+00  0.0000E+00  0.1287E+01  0.1896E-04  0.0000E+00  0.0000E+00  0.0000E+00  0.0000E+00  0.0000E+00  0.0000E+00  0.0000E+00  0.0000E+00  0.0000E+00  0.0000E+00  0.0000E+00  0.0000E+00  0.0000E+00  0.0000E+00
REACH    3        0     6  0.1834E+01  0.2949E-03  0.2729E-03  0.2193E-04  0.0000E+00  0.2562E-06  0.1879E-06  0.5664E-02  0.5421E-05  0.2539E-05  0.1626E-04  0.7699E-05  0.1541E+01  0.1423E+01  0.0000E+00  0.2928E-02  0.0000E+00  0.1625E-06  0.5426E-05  0.8509E-05  0.3070E-09  0.0000E+00  0.0000E+00  0.0000E+00  0.8930E+01  0.8176E+01  0.0000E+00  0.0000E+00  0.0000E+00  0.0000E+00  0.0000E+00  0.0000E+00  0.0000E+00  0.0000E+00  0.0000E+00  0.0000E+00  0.0000E+00  0.0000E+00  0.0000E+00  0.0000E+00  0.0000E+00  0.0000E+00  0.0000E+00  0.1426E+01  0.1621E-04  0.0000E+00  0.0000E+00  0.0000E+00  0.0000E+00  0.0000E+00  0.0000E+00  0.0000E+00  0.0000E+00  0.0000E+00  0.0000E+00  0.0000E+00  0.0000E+00  0.0000E+00  0.0000E+00
REACH    1        0     7  0.5790E+01  0.2676E-06  0.0000E+00  0.2676E-06  0.0000E+00  0.9922E-07  0.0000E+00  0.0000E+00  0.5162E-05  0.0000E+00  0.1548E-04  0.0000E+00  0.1018E-02  0.0000E+00  0.0000E+00  0.0000E+00  0.0000E+00  0.0000E+00  0.5167E-05  0.0000E+00  0.9818E-10  0.0000E+00  0.0000E+00  0.0000E+00  0.3335E-02  0.0000E+00  0.0000E+00  0.0000E+00  0.0000E+00  0.0000E+00  0.0000E+00  0.0000E+00  0.0000E+00  0.0000E+00  0.0000E+00  0.0000E+00  0.0000E+00  0.0000E+00  0.0000E+00  0.0000E+00  0.0000E+00  0.0000E+00  0.0000E+00  0.0000E+00  0.0000E+00  0.0000E+00  0.0000E+00  0.0000E+00  0.0000E+00  0.0000E+00  0.0000E+00  0.0000E+00  0.0000E+00  0.0000E+00  0.0000E+00  0.0000E+00  0.0000E+00  0.0000E+00  0.0000E+00
REACH    2        0     7  0.2233E+01  0.2725E-06  0.0000E+00  0.2725E-06  0.0000E+00  0.9917E-07  0.0000E+00  0.0000E+00  0.6525E-05  0.0000E+00  0.1957E-04  0.0000E+00  0.9276E-03  0.0000E+00  0.0000E+00  0.0000E+00  0.0000E+00  0.0000E+00  0.6532E-05  0.0000E+00  0.1218E-09  0.0000E+00  0.0000E+00  0.0000E+00  0.3046E-02  0.0000E+00  0.0000E+00  0.0000E+00  0.0000E+00  0.0000E+00  0.0000E+00  0.0000E+00  0.0000E+00  0.0000E+00  0.0000E+00  0.0000E+00  0.0000E+00  0.0000E+00  0.0000E+00  0.0000E+00  0.0000E+00  0.0000E+00  0.0000E+00  0.0000E+00  0.0000E+00  0.0000E+00  0.0000E+00  0.0000E+00  0.0000E+00  0.0000E+00  0.0000E+00  0.0000E+00  0.0000E+00  0.0000E+00  0.0000E+00  0.0000E+00  0.0000E+00  0.0000E+00  0.0000E+00
REACH    3        0     7  0.1834E+01  0.2857E-06  0.0000E+00  0.2857E-06  0.0000E+00  0.2647E-06  0.0000E+00  0.0000E+00  0.5601E-05  0.0000E+00  0.1680E-04  0.0000E+00  0.1090E-02  0.0000E+00  0.0000E+00  0.0000E+00  0.0000E+00  0.0000E+00  0.5607E-05  0.0000E+00  0.9478E-10  0.0000E+00  0.0000E+00  0.0000E+00  0.3281E-02  0.0000E+00  0.0000E+00  0.0000E+00  0.0000E+00  0.0000E+00  0.0000E+00  0.0000E+00  0.0000E+00  0.0000E+00  0.0000E+00  0.0000E+00  0.0000E+00  0.0000E+00  0.0000E+00  0.0000E+00  0.0000E+00  0.0000E+00  0.0000E+00  0.0000E+00  0.0000E+00  0.0000E+00  0.0000E+00  0.0000E+00  0.0000E+00  0.0000E+00  0.0000E+00  0.0000E+00  0.0000E+00  0.0000E+00  0.0000E+00  0.0000E+00  0.0000E+00  0.0000E+00  0.0000E+00
REACH    1        0     8  0.5790E+01  0.2433E-02  0.2374E-02  0.4527E-04  0.0000E+00  0.4773E+01  0.2767E+00  0.8007E+01  0.1139E+02  0.1131E+02  0.2478E+01  0.2457E+01  0.1783E+02  0.1743E+02  0.3964E-02  0.1333E-01  0.3567E-05  0.5817E-04  0.2060E-02  0.6577E-02  0.2108E-02  0.0000E+00  0.1562E+02  0.1509E+02  0.6839E+02  0.6330E+02  0.0000E+00  0.0000E+00  0.0000E+00  0.0000E+00  0.0000E+00  0.0000E+00  0.0000E+00  0.0000E+00  0.0000E+00  0.0000E+00  0.0000E+00  0.0000E+00  0.0000E+00  0.0000E+00  0.0000E+00  0.0000E+00  0.0000E+00  0.2876E+02  0.2463E+01  0.0000E+00  0.0000E+00  0.0000E+00  0.0000E+00  0.0000E+00  0.0000E+00  0.0000E+00  0.0000E+00  0.0000E+00  0.0000E+00  0.0000E+00  0.0000E+00  0.0000E+00  0.0000E+00
REACH    2        0     8  0.2233E+01  0.8060E-03  0.7865E-03  0.1480E-04  0.0000E+00  0.2779E+01  0.2711E+01  0.1338E+03  0.6619E+01  0.6578E+01  0.1442E+01  0.1431E+01  0.5826E+01  0.5698E+01  0.0000E+00  0.1573E-02  0.0000E+00  0.3567E-05  0.4306E-03  0.1352E-02  0.1063E-01  0.0000E+00  0.9887E+01  0.9559E+01  0.2585E+02  0.1908E+02  0.0000E+00  0.0000E+00  0.0000E+00  0.0000E+00  0.0000E+00  0.0000E+00  0.0000E+00  0.0000E+00  0.0000E+00  0.0000E+00  0.0000E+00  0.0000E+00  0.0000E+00  0.0000E+00  0.0000E+00  0.0000E+00  0.0000E+00  0.1228E+02  0.1432E+01  0.0000E+00  0.0000E+00  0.0000E+00  0.0000E+00  0.0000E+00  0.0000E+00  0.0000E+00  0.0000E+00  0.0000E+00  0.0000E+00  0.0000E+00  0.0000E+00  0.0000E+00  0.0000E+00
REACH    3        0     8  0.1834E+01  0.8558E-03  0.8452E-03  0.1062E-04  0.0000E+00  0.1364E+01  0.1343E+01  0.6289E+02  0.3191E+01  0.3180E+01  0.6956E+00  0.6922E+00  0.6323E+01  0.6248E+01  0.0000E+00  0.2391E-02  0.0000E+00  0.0000E+00  0.2011E-03  0.6123E-03  0.4494E-02  0.0000E+00  0.4181E+01  0.4097E+01  0.2756E+02  0.2345E+02  0.0000E+00  0.0000E+00  0.0000E+00  0.0000E+00  0.0000E+00  0.0000E+00  0.0000E+00  0.0000E+00  0.0000E+00  0.0000E+00  0.0000E+00  0.0000E+00  0.0000E+00  0.0000E+00  0.0000E+00  0.0000E+00  0.0000E+00  0.9430E+01  0.6928E+00  0.0000E+00  0.0000E+00  0.0000E+00  0.0000E+00  0.0000E+00  0.0000E+00  0.0000E+00  0.0000E+00  0.0000E+00  0.0000E+00  0.0000E+00  0.0000E+00  0.0000E+00  0.0000E+00
REACH    1        0     9  0.5790E+01  0.4418E-02  0.4334E-02  0.9065E-04  0.0000E+00  0.4951E+02  0.4789E+00  0.1650E+02  0.1078E+03  0.1070E+03  0.2346E+02  0.2325E+02  0.1069E+02  0.1047E+02  0.2240E+00  0.5526E+00  0.3910E-04  0.1142E-02  0.1456E-01  0.4588E-01  0.1120E+00  0.0000E+00  0.8364E+03  0.8090E+03  0.1088E+03  0.9062E+02  0.0000E+00  0.0000E+00  0.0000E+00  0.0000E+00  0.0000E+00  0.0000E+00  0.0000E+00  0.0000E+00  0.0000E+00  0.0000E+00  0.0000E+00  0.0000E+00  0.0000E+00  0.0000E+00  0.0000E+00  0.0000E+00  0.0000E+00  0.1180E+03  0.2329E+02  0.0000E+00  0.0000E+00  0.0000E+00  0.0000E+00  0.0000E+00  0.0000E+00  0.0000E+00  0.0000E+00  0.0000E+00  0.0000E+00  0.0000E+00  0.0000E+00  0.0000E+00  0.0000E+00
REACH    2        0     9  0.2233E+01  0.1472E-02  0.1448E-02  0.2969E-04  0.0000E+00  0.2877E+02  0.2818E+02  0.1192E+04  0.6275E+02  0.6234E+02  0.1368E+02  0.1356E+02  0.3441E+01  0.3373E+01  0.0000E+00  0.1677E+00  0.0000E+00  0.3526E-04  0.3055E-02  0.9570E-02  0.5553E+00  0.0000E+00  0.5239E+03  0.5081E+03  0.4380E+02  0.3003E+02  0.0000E+00  0.0000E+00  0.0000E+00  0.0000E+00  0.0000E+00  0.0000E+00  0.0000E+00  0.0000E+00  0.0000E+00  0.0000E+00  0.0000E+00  0.0000E+00  0.0000E+00  0.0000E+00  0.0000E+00  0.0000E+00  0.0000E+00  0.6588E+02  0.1357E+02  0.0000E+00  0.0000E+00  0.0000E+00  0.0000E+00  0.0000E+00  0.0000E+00  0.0000E+00  0.0000E+00  0.0000E+00  0.0000E+00  0.0000E+00  0.0000E+00  0.0000E+00  0.0000E+00
REACH    3        0     9  0.1834E+01  0.1547E-02  0.1528E-02  0.1897E-04  0.0000E+00  0.1415E+02  0.1396E+02  0.5978E+03  0.3030E+02  0.3017E+02  0.6604E+01  0.6569E+01  0.3819E+01  0.3756E+01  0.0000E+00  0.5635E-01  0.0000E+00  0.3841E-05  0.1411E-02  0.4342E-02  0.2405E+00  0.0000E+00  0.2269E+03  0.2225E+03  0.4679E+02  0.3481E+02  0.0000E+00  0.0000E+00  0.0000E+00  0.0000E+00  0.0000E+00  0.0000E+00  0.0000E+00  0.0000E+00  0.0000E+00  0.0000E+00  0.0000E+00  0.0000E+00  0.0000E+00  0.0000E+00  0.0000E+00  0.0000E+00  0.0000E+00  0.3399E+02  0.6573E+01  0.0000E+00  0.0000E+00  0.0000E+00  0.0000E+00  0.0000E+00  0.0000E+00  0.0000E+00  0.0000E+00  0.0000E+00  0.0000E+00  0.0000E+00  0.0000E+00  0.0000E+00  0.0000E+00
REACH    1        0    10  0.5790E+01  0.1542E-01  0.1534E-01  0.5385E-04  0.0000E+00  0.7808E+03  0.3086E+01  0.4298E+02  0.1925E+04  0.1916E+04  0.4191E+03  0.4164E+03  0.1410E+02  0.1381E+02  0.4209E+00  0.1317E+01  0.2593E-04  0.2451E-02  0.2150E+00  0.6743E+00  0.1556E+02  0.3512E+01  0.2722E+05  0.2646E+05  0.3077E+03  0.2102E+03  0.0000E+00  0.0000E+00  0.0000E+00  0.0000E+00  0.0000E+00  0.0000E+00  0.0000E+00  0.0000E+00  0.0000E+00  0.0000E+00  0.0000E+00  0.0000E+00  0.0000E+00  0.0000E+00  0.0000E+00  0.0000E+00  0.0000E+00  0.1931E+04  0.4171E+03  0.0000E+00  0.0000E+00  0.0000E+00  0.0000E+00  0.0000E+00  0.0000E+00  0.0000E+00  0.0000E+00  0.0000E+00  0.0000E+00  0.0000E+00  0.0000E+00  0.0000E+00  0.0000E+00
REACH    2        0    10  0.2233E+01  0.5356E-02  0.5332E-02  0.1831E-04  0.0000E+00  0.4510E+03  0.4435E+03  0.8719E+04  0.1117E+04  0.1113E+04  0.2435E+03  0.2423E+03  0.5955E+01  0.5841E+01  0.0000E+00  0.2313E+00  0.0000E+00  0.2004E-04  0.4544E-01  0.1411E+00  0.2088E+02  0.6621E+01  0.1656E+05  0.1619E+05  0.1542E+03  0.7143E+02  0.0000E+00  0.0000E+00  0.0000E+00  0.0000E+00  0.0000E+00  0.0000E+00  0.0000E+00  0.0000E+00  0.0000E+00  0.0000E+00  0.0000E+00  0.0000E+00  0.0000E+00  0.0000E+00  0.0000E+00  0.0000E+00  0.0000E+00  0.1119E+04  0.2424E+03  0.0000E+00  0.0000E+00  0.0000E+00  0.0000E+00  0.0000E+00  0.0000E+00  0.0000E+00  0.0000E+00  0.0000E+00  0.0000E+00  0.0000E+00  0.0000E+00  0.0000E+00  0.0000E+00
REACH    3        0    10  0.1834E+01  0.5286E-02  0.5270E-02  0.1204E-04  0.0000E+00  0.2238E+03  0.2210E+03  0.4932E+04  0.5417E+03  0.5403E+03  0.1181E+03  0.1176E+03  0.4440E+01  0.4399E+01  0.0000E+00  0.1896E+00  0.0000E+00  0.5884E-05  0.2095E-01  0.6442E-01  0.9452E+01  0.4442E+01  0.7546E+04  0.7420E+04  0.1600E+03  0.8719E+02  0.0000E+00  0.0000E+00  0.0000E+00  0.0000E+00  0.0000E+00  0.0000E+00  0.0000E+00  0.0000E+00  0.0000E+00  0.0000E+00  0.0000E+00  0.0000E+00  0.0000E+00  0.0000E+00  0.0000E+00  0.0000E+00  0.0000E+00  0.5449E+03  0.1177E+03  0.0000E+00  0.0000E+00  0.0000E+00  0.0000E+00  0.0000E+00  0.0000E+00  0.0000E+00  0.0000E+00  0.0000E+00  0.0000E+00  0.0000E+00  0.0000E+00  0.0000E+00  0.0000E+00
REACH    1        0    11  0.5790E+01  0.8818E-01  0.8812E-01  0.3986E-04  0.0000E+00  0.1726E+05  0.3553E+02  0.1236E+03  0.2810E+05  0.2805E+05  0.6128E+04  0.6111E+04  0.3684E+03  0.3665E+03  0.9066E+01  0.2702E+02  0.1641E-03  0.1606E-01  0.3283E+01  0.1003E+02  0.5595E+03  0.4452E+03  0.8058E+06  0.7948E+06  0.9268E+03  0.2360E+03  0.0000E+00  0.0000E+00  0.0000E+00  0.0000E+00  0.0000E+00  0.0000E+00  0.0000E+00  0.0000E+00  0.0000E+00  0.0000E+00  0.0000E+00  0.0000E+00  0.0000E+00  0.0000E+00  0.0000E+00  0.0000E+00  0.0000E+00  0.2844E+05  0.6121E+04  0.0000E+00  0.0000E+00  0.0000E+00  0.0000E+00  0.0000E+00  0.0000E+00  0.0000E+00  0.0000E+00  0.0000E+00  0.0000E+00  0.0000E+00  0.0000E+00  0.0000E+00  0.0000E+00
REACH    2        0    11  0.2233E+01  0.3231E-01  0.3229E-01  0.1311E-04  0.0000E+00  0.8111E+04  0.8052E+04  0.3617E+05  0.1307E+05  0.1305E+05  0.2853E+04  0.2847E+04  0.1198E+03  0.1192E+03  0.0000E+00  0.5757E+01  0.0000E+00  0.1296E-03  0.6404E+00  0.1949E+01  0.3323E+03  0.2682E+03  0.4238E+06  0.4200E+06  0.6854E+03  0.8484E+02  0.0000E+00  0.0000E+00  0.0000E+00  0.0000E+00  0.0000E+00  0.0000E+00  0.0000E+00  0.0000E+00  0.0000E+00  0.0000E+00  0.0000E+00  0.0000E+00  0.0000E+00  0.0000E+00  0.0000E+00  0.0000E+00  0.0000E+00  0.1318E+05  0.2849E+04  0.0000E+00  0.0000E+00  0.0000E+00  0.0000E+00  0.0000E+00  0.0000E+00  0.0000E+00  0.0000E+00  0.0000E+00  0.0000E+00  0.0000E+00  0.0000E+00  0.0000E+00  0.0000E+00
REACH    3        0    11  0.1834E+01  0.2951E-01  0.2950E-01  0.8413E-05  0.0000E+00  0.5364E+04  0.5334E+04  0.2578E+05  0.8716E+04  0.8708E+04  0.1902E+04  0.1899E+04  0.1278E+03  0.1276E+03  0.0000E+00  0.3309E+01  0.0000E+00  0.3448E-04  0.3611E+00  0.1095E+01  0.1930E+03  0.1665E+03  0.2384E+06  0.2368E+06  0.7310E+03  0.1457E+03  0.0000E+00  0.0000E+00  0.0000E+00  0.0000E+00  0.0000E+00  0.0000E+00  0.0000E+00  0.0000E+00  0.0000E+00  0.0000E+00  0.0000E+00  0.0000E+00  0.0000E+00  0.0000E+00  0.0000E+00  0.0000E+00  0.0000E+00  0.8839E+04  0.1900E+04  0.0000E+00  0.0000E+00  0.0000E+00  0.0000E+00  0.0000E+00  0.0000E+00  0.0000E+00  0.0000E+00  0.0000E+00  0.0000E+00  0.0000E+00  0.0000E+00  0.0000E+00  0.0000E+00
REACH    1        0    12  0.5790E+01  0.2123E+00  0.2122E+00  0.3685E-04  0.0000E+00  0.5554E+05  0.1412E+03  0.1924E+03  0.4800E+05  0.4794E+05  0.1052E+05  0.1050E+05  0.4906E+03  0.4889E+03  0.1632E+02  0.4922E+02  0.1390E-03  0.1585E-01  0.6135E+01  0.1795E+02  0.1076E+04  0.9694E+03  0.2711E+07  0.2682E+07  0.1837E+04  0.3646E+03  0.0000E+00  0.0000E+00  0.0000E+00  0.0000E+00  0.0000E+00  0.0000E+00  0.0000E+00  0.0000E+00  0.0000E+00  0.0000E+00  0.0000E+00  0.0000E+00  0.0000E+00  0.0000E+00  0.0000E+00  0.0000E+00  0.0000E+00  0.4848E+05  0.1052E+05  0.0000E+00  0.0000E+00  0.0000E+00  0.0000E+00  0.0000E+00  0.0000E+00  0.0000E+00  0.0000E+00  0.0000E+00  0.0000E+00  0.0000E+00  0.0000E+00  0.0000E+00  0.0000E+00
REACH    2        0    12  0.2233E+01  0.8105E-01  0.8101E-01  0.1223E-04  0.0000E+00  0.2299E+05  0.2285E+05  0.4883E+05  0.1535E+05  0.1534E+05  0.3376E+04  0.3371E+04  0.1579E+03  0.1575E+03  0.0000E+00  0.9094E+01  0.0000E+00  0.1062E-03  0.1058E+01  0.3167E+01  0.4133E+03  0.3762E+03  0.1261E+07  0.1251E+07  0.1498E+04  0.1534E+03  0.0000E+00  0.0000E+00  0.0000E+00  0.0000E+00  0.0000E+00  0.0000E+00  0.0000E+00  0.0000E+00  0.0000E+00  0.0000E+00  0.0000E+00  0.0000E+00  0.0000E+00  0.0000E+00  0.0000E+00  0.0000E+00  0.0000E+00  0.1550E+05  0.3374E+04  0.0000E+00  0.0000E+00  0.0000E+00  0.0000E+00  0.0000E+00  0.0000E+00  0.0000E+00  0.0000E+00  0.0000E+00  0.0000E+00  0.0000E+00  0.0000E+00  0.0000E+00  0.0000E+00
REACH    3        0    12  0.1834E+01  0.6875E-01  0.6873E-01  0.7909E-05  0.0000E+00  0.1806E+05  0.1798E+05  0.4262E+05  0.1670E+05  0.1669E+05  0.3659E+04  0.3655E+04  0.1704E+03  0.1701E+03  0.0000E+00  0.7221E+01  0.0000E+00  0.3285E-04  0.7628E+00  0.2293E+01  0.3825E+03  0.3579E+03  0.8467E+06  0.8416E+06  0.1499E+04  0.2022E+03  0.0000E+00  0.0000E+00  0.0000E+00  0.0000E+00  0.0000E+00  0.0000E+00  0.0000E+00  0.0000E+00  0.0000E+00  0.0000E+00  0.0000E+00  0.0000E+00  0.0000E+00  0.0000E+00  0.0000E+00  0.0000E+00  0.0000E+00  0.1686E+05  0.3657E+04  0.0000E+00  0.0000E+00  0.0000E+00  0.0000E+00  0.0000E+00  0.0000E+00  0.0000E+00  0.0000E+00  0.0000E+00  0.0000E+00  0.0000E+00  0.0000E+00  0.0000E+00  0.0000E+00
REACH    1        0  1981  0.5790E+01  0.3908E-01  0.3901E-01  0.5094E-04  0.0000E+00  0.7364E+05  0.1805E+03  0.4608E+02  0.7815E+05  0.7802E+05  0.1710E+05  0.1706E+05  0.9117E+03  0.9062E+03  0.2604E+02  0.7815E+02  0.3775E-03  0.3613E-01  0.9650E+01  0.2871E+02  0.1651E+04  0.1418E+04  0.3545E+07  0.3505E+07  0.3300E+04  0.1011E+04  0.0000E+00  0.0000E+00  0.0000E+00  0.0000E+00  0.0000E+00  0.0000E+00  0.0000E+00  0.0000E+00  0.0000E+00  0.0000E+00  0.0000E+00  0.0000E+00  0.0000E+00  0.0000E+00  0.0000E+00  0.0000E+00  0.0000E+00  0.7900E+05  0.1708E+05  0.0000E+00  0.0000E+00  0.0000E+00  0.0000E+00  0.0000E+00  0.0000E+00  0.0000E+00  0.0000E+00  0.0000E+00  0.0000E+00  0.0000E+00  0.0000E+00  0.0000E+00  0.0000E+00
REACH    2        0  1981  0.2233E+01  0.1465E-01  0.1463E-01  0.1731E-04  0.0000E+00  0.3158E+05  0.3138E+05  0.1141E+05  0.2961E+05  0.2957E+05  0.6488E+04  0.6476E+04  0.2963E+03  0.2947E+03  0.0000E+00  0.1525E+02  0.0000E+00  0.3000E-03  0.1747E+01  0.5269E+01  0.7671E+03  0.6510E+03  0.1702E+07  0.1688E+07  0.2425E+04  0.3749E+03  0.0000E+00  0.0000E+00  0.0000E+00  0.0000E+00  0.0000E+00  0.0000E+00  0.0000E+00  0.0000E+00  0.0000E+00  0.0000E+00  0.0000E+00  0.0000E+00  0.0000E+00  0.0000E+00  0.0000E+00  0.0000E+00  0.0000E+00  0.2988E+05  0.6481E+04  0.0000E+00  0.0000E+00  0.0000E+00  0.0000E+00  0.0000E+00  0.0000E+00  0.0000E+00  0.0000E+00  0.0000E+00  0.0000E+00  0.0000E+00  0.0000E+00  0.0000E+00  0.0000E+00
REACH    3        0  1981  0.1834E+01  0.1283E-01  0.1282E-01  0.1175E-04  0.0000E+00  0.2366E+05  0.2355E+05  0.8891E+04  0.2599E+05  0.2597E+05  0.5686E+04  0.5679E+04  0.3164E+03  0.3155E+03  0.0000E+00  0.1078E+02  0.0000E+00  0.7752E-04  0.1146E+01  0.3458E+01  0.5852E+03  0.5288E+03  0.1093E+07  0.1086E+07  0.2483E+04  0.5110E+03  0.0000E+00  0.0000E+00  0.0000E+00  0.0000E+00  0.0000E+00  0.0000E+00  0.0000E+00  0.0000E+00  0.0000E+00  0.0000E+00  0.0000E+00  0.0000E+00  0.0000E+00  0.0000E+00  0.0000E+00  0.0000E+00  0.0000E+00  0.2630E+05  0.5683E+04  0.0000E+00  0.0000E+00  0.0000E+00  0.0000E+00  0.0000E+00  0.0000E+00  0.0000E+00  0.0000E+00  0.0000E+00  0.0000E+00  0.0000E+00  0.0000E+00  0.0000E+00  0.0000E+00
REACH    1        0     1  0.5790E+01  0.3109E+00  0.3109E+00  0.2733E-04  0.0000E+00  0.5664E+05  0.2228E+03  0.2368E+03  0.2375E+05  0.2374E+05  0.5221E+04  0.5214E+04  0.3638E+03  0.3637E+03  0.4418E+01  0.1333E+02  0.6205E-05  0.5655E-02  0.3522E+01  0.9977E+01  0.3766E+03  0.3432E+03  0.2354E+07  0.2335E+07  0.3178E+04  0.9279E+03  0.0000E+00  0.0000E+00  0.0000E+00  0.0000E+00  0.0000E+00  0.0000E+00  0.0000E+00  0.0000E+00  0.0000E+00  0.0000E+00  0.0000E+00  0.0000E+00  0.0000E+00  0.0000E+00  0.0000E+00  0.0000E+00  0.0000E+00  0.2411E+05  0.5224E+04  0.0000E+00  0.0000E+00  0.0000E+00  0.0000E+00  0.0000E+00  0.0000E+00  0.0000E+00  0.0000E+00  0.0000E+00  0.0000E+00  0.0000E+00  0.0000E+00  0.0000E+00  0.0000E+00
REACH    2        0     1  0.2233E+01  0.1188E+00  0.1188E+00  0.9108E-05  0.0000E+00  0.2377E+05  0.2365E+05  0.4540E+05  0.7835E+04  0.7831E+04  0.1723E+04  0.1721E+04  0.1239E+03  0.1238E+03  0.0000E+00  0.2251E+01  0.0000E+00  0.6205E-05  0.6507E+00  0.1864E+01  0.1484E+03  0.1362E+03  0.1131E+07  0.1125E+07  0.2701E+04  0.3733E+03  0.0000E+00  0.0000E+00  0.0000E+00  0.0000E+00  0.0000E+00  0.0000E+00  0.0000E+00  0.0000E+00  0.0000E+00  0.0000E+00  0.0000E+00  0.0000E+00  0.0000E+00  0.0000E+00  0.0000E+00  0.0000E+00  0.0000E+00  0.7957E+04  0.1723E+04  0.0000E+00  0.0000E+00  0.0000E+00  0.0000E+00  0.0000E+00  0.0000E+00  0.0000E+00  0.0000E+00  0.0000E+00  0.0000E+00  0.0000E+00  0.0000E+00  0.0000E+00  0.0000E+00
REACH    3        0     1  0.1834E+01  0.9967E-01  0.9967E-01  0.5904E-05  0.0000E+00  0.1832E+05  0.1825E+05  0.3988E+05  0.8159E+04  0.8156E+04  0.1794E+04  0.1793E+04  0.1231E+03  0.1231E+03  0.0000E+00  0.2167E+01  0.0000E+00  0.0000E+00  0.4244E+00  0.1262E+01  0.1316E+03  0.1240E+03  0.7249E+06  0.7216E+06  0.2466E+04  0.4005E+03  0.0000E+00  0.0000E+00  0.0000E+00  0.0000E+00  0.0000E+00  0.0000E+00  0.0000E+00  0.0000E+00  0.0000E+00  0.0000E+00  0.0000E+00  0.0000E+00  0.0000E+00  0.0000E+00  0.0000E+00  0.0000E+00  0.0000E+00  0.8281E+04  0.1794E+04  0.0000E+00  0.0000E+00  0.0000E+00  0.0000E+00  0.0000E+00  0.0000E+00  0.0000E+00  0.0000E+00  0.0000E+00  0.0000E+00  0.0000E+00  0.0000E+00  0.0000E+00  0.0000E+00
REACH    1        0     2  0.5790E+01  0.6028E+00  0.6027E+00  0.5459E-04  0.0000E+00  0.1843E+06  0.4859E+03  0.3268E+03  0.1768E+05  0.1766E+05  0.3918E+04  0.3913E+04  0.2889E+03  0.2887E+03  0.3706E+01  0.1115E+02  0.0000E+00  0.2732E-02  0.3629E+01  0.8313E+01  0.3278E+03  0.3123E+03  0.7955E+07  0.7899E+07  0.4426E+04  0.1160E+04  0.0000E+00  0.0000E+00  0.0000E+00  0.0000E+00  0.0000E+00  0.0000E+00  0.0000E+00  0.0000E+00  0.0000E+00  0.0000E+00  0.0000E+00  0.0000E+00  0.0000E+00  0.0000E+00  0.0000E+00  0.0000E+00  0.0000E+00  0.1796E+05  0.3922E+04  0.0000E+00  0.0000E+00  0.0000E+00  0.0000E+00  0.0000E+00  0.0000E+00  0.0000E+00  0.0000E+00  0.0000E+00  0.0000E+00  0.0000E+00  0.0000E+00  0.0000E+00  0.0000E+00
REACH    2        0     2  0.2233E+01  0.2319E+00  0.2319E+00  0.1857E-04  0.0000E+00  0.6947E+05  0.6919E+05  0.7175E+05  0.6402E+04  0.6398E+04  0.1413E+04  0.1412E+04  0.1004E+03  0.1003E+03  0.0000E+00  0.2409E+01  0.0000E+00  0.0000E+00  0.8792E+00  0.1994E+01  0.1283E+03  0.1231E+03  0.3404E+07  0.3386E+07  0.3883E+04  0.4357E+03  0.0000E+00  0.0000E+00  0.0000E+00  0.0000E+00  0.0000E+00  0.0000E+00  0.0000E+00  0.0000E+00  0.0000E+00  0.0000E+00  0.0000E+00  0.0000E+00  0.0000E+00  0.0000E+00  0.0000E+00  0.0000E+00  0.0000E+00  0.6501E+04  0.1413E+04  0.0000E+00  0.0000E+00  0.0000E+00  0.0000E+00  0.0000E+00  0.0000E+00  0.0000E+00  0.0000E+00  0.0000E+00  0.0000E+00  0.0000E+00  0.0000E+00  0.0000E+00  0.0000E+00
REACH    3        0     2  0.1834E+01  0.1927E+00  0.1927E+00  0.1209E-04  0.0000E+00  0.6153E+05  0.6134E+05  0.6756E+05  0.5698E+04  0.5695E+04  0.1266E+04  0.1265E+04  0.9647E+02  0.9646E+02  0.0000E+00  0.1297E+01  0.0000E+00  0.0000E+00  0.4588E+00  0.1116E+01  0.1066E+03  0.1033E+03  0.2555E+07  0.2545E+07  0.3587E+04  0.4665E+03  0.0000E+00  0.0000E+00  0.0000E+00  0.0000E+00  0.0000E+00  0.0000E+00  0.0000E+00  0.0000E+00  0.0000E+00  0.0000E+00  0.0000E+00  0.0000E+00  0.0000E+00  0.0000E+00  0.0000E+00  0.0000E+00  0.0000E+00  0.5793E+04  0.1267E+04  0.0000E+00  0.0000E+00  0.0000E+00  0.0000E+00  0.0000E+00  0.0000E+00  0.0000E+00  0.0000E+00  0.0000E+00  0.0000E+00  0.0000E+00  0.0000E+00  0.0000E+00  0.0000E+00
REACH    1        0     3  0.5790E+01  0.3370E+00  0.3370E+00  0.5471E-04  0.0000E+00  0.4647E+05  0.2436E+03  0.2527E+03  0.2199E+03  0.2196E+03  0.5614E+02  0.5604E+02  0.1316E+03  0.1316E+03  0.1372E+00  0.3500E+00  0.0000E+00  0.0000E+00  0.2287E+00  0.3134E+00  0.2704E+01  0.2511E+01  0.1852E+07  0.1835E+07  0.5031E+04  0.2872E+04  0.0000E+00  0.0000E+00  0.0000E+00  0.0000E+00  0.0000E+00  0.0000E+00  0.0000E+00  0.0000E+00  0.0000E+00  0.0000E+00  0.0000E+00  0.0000E+00  0.0000E+00  0.0000E+00  0.0000E+00  0.0000E+00  0.0000E+00  0.3516E+03  0.5636E+02  0.0000E+00  0.0000E+00  0.0000E+00  0.0000E+00  0.0000E+00  0.0000E+00  0.0000E+00  0.0000E+00  0.0000E+00  0.0000E+00  0.0000E+00  0.0000E+00  0.0000E+00  0.0000E+00
REACH    2        0     3  0.2233E+01  0.1306E+00  0.1306E+00  0.1843E-04  0.0000E+00  0.1946E+05  0.1937E+05  0.2820E+05  0.2049E+03  0.2048E+03  0.4747E+02  0.4741E+02  0.4895E+02  0.4895E+02  0.0000E+00  0.1264E+00  0.0000E+00  0.0000E+00  0.1072E+00  0.1570E+00  0.2741E+01  0.2580E+01  0.8894E+06  0.8838E+06  0.3280E+04  0.1193E+04  0.0000E+00  0.0000E+00  0.0000E+00  0.0000E+00  0.0000E+00  0.0000E+00  0.0000E+00  0.0000E+00  0.0000E+00  0.0000E+00  0.0000E+00  0.0000E+00  0.0000E+00  0.0000E+00  0.0000E+00  0.0000E+00  0.0000E+00  0.2538E+03  0.4757E+02  0.0000E+00  0.0000E+00  0.0000E+00  0.0000E+00  0.0000E+00  0.0000E+00  0.0000E+00  0.0000E+00  0.0000E+00  0.0000E+00  0.0000E+00  0.0000E+00  0.0000E+00  0.0000E+00
REACH    3        0     3  0.1834E+01  0.1055E+00  0.1055E+00  0.1192E-04  0.0000E+00  0.1503E+05  0.1498E+05  0.2496E+05  0.4481E+01  0.4478E+01  0.3720E+01  0.3716E+01  0.4240E+02  0.4240E+02  0.0000E+00  0.1082E-01  0.0000E+00  0.0000E+00  0.2453E-01  0.2851E-01  0.4074E-01  0.3783E-01  0.5714E+06  0.5685E+06  0.2769E+04  0.1088E+04  0.0000E+00  0.0000E+00  0.0000E+00  0.0000E+00  0.0000E+00  0.0000E+00  0.0000E+00  0.0000E+00  0.0000E+00  0.0000E+00  0.0000E+00  0.0000E+00  0.0000E+00  0.0000E+00  0.0000E+00  0.0000E+00  0.0000E+00  0.4689E+02  0.3745E+01  0.0000E+00  0.0000E+00  0.0000E+00  0.0000E+00  0.0000E+00  0.0000E+00  0.0000E+00  0.0000E+00  0.0000E+00  0.0000E+00  0.0000E+00  0.0000E+00  0.0000E+00  0.0000E+00
REACH    1        0     4  0.5790E+01  0.2200E+00  0.2200E+00  0.6802E-04  0.0000E+00  0.1319E+05  0.1281E+03  0.2110E+03  0.4797E+02  0.4790E+02  0.1197E+02  0.1194E+02  0.5108E+02  0.5108E+02  0.3836E-01  0.1023E+00  0.0000E+00  0.0000E+00  0.6074E-01  0.8382E-01  0.2812E+00  0.2488E+00  0.4626E+06  0.4575E+06  0.4534E+04  0.3661E+04  0.0000E+00  0.0000E+00  0.0000E+00  0.0000E+00  0.0000E+00  0.0000E+00  0.0000E+00  0.0000E+00  0.0000E+00  0.0000E+00  0.0000E+00  0.0000E+00  0.0000E+00  0.0000E+00  0.0000E+00  0.0000E+00  0.0000E+00  0.9909E+02  0.1203E+02  0.0000E+00  0.0000E+00  0.0000E+00  0.0000E+00  0.0000E+00  0.0000E+00  0.0000E+00  0.0000E+00  0.0000E+00  0.0000E+00  0.0000E+00  0.0000E+00  0.0000E+00  0.0000E+00
REACH    2        0     4  0.2233E+01  0.8635E-01  0.8632E-01  0.2288E-04  0.0000E+00  0.6104E+04  0.6066E+04  0.1555E+05  0.4364E+02  0.4359E+02  0.1006E+02  0.1005E+02  0.1913E+02  0.1913E+02  0.0000E+00  0.2995E-01  0.0000E+00  0.0000E+00  0.2846E-01  0.4179E-01  0.2847E+00  0.2578E+00  0.2491E+06  0.2470E+06  0.2321E+04  0.1468E+04  0.0000E+00  0.0000E+00  0.0000E+00  0.0000E+00  0.0000E+00  0.0000E+00  0.0000E+00  0.0000E+00  0.0000E+00  0.0000E+00  0.0000E+00  0.0000E+00  0.0000E+00  0.0000E+00  0.0000E+00  0.0000E+00  0.0000E+00  0.6275E+02  0.1009E+02  0.0000E+00  0.0000E+00  0.0000E+00  0.0000E+00  0.0000E+00  0.0000E+00  0.0000E+00  0.0000E+00  0.0000E+00  0.0000E+00  0.0000E+00  0.0000E+00  0.0000E+00  0.0000E+00
REACH    3        0     4  0.1834E+01  0.6783E-01  0.6782E-01  0.1474E-04  0.0000E+00  0.4129E+04  0.4108E+04  0.1335E+05  0.1346E+01  0.1344E+01  0.7821E+00  0.7811E+00  0.1639E+02  0.1639E+02  0.0000E+00  0.8410E-02  0.0000E+00  0.0000E+00  0.6266E-02  0.7630E-02  0.9488E-02  0.8617E-02  0.1365E+06  0.1356E+06  0.1874E+04  0.1200E+04  0.0000E+00  0.0000E+00  0.0000E+00  0.0000E+00  0.0000E+00  0.0000E+00  0.0000E+00  0.0000E+00  0.0000E+00  0.0000E+00  0.0000E+00  0.0000E+00  0.0000E+00  0.0000E+00  0.0000E+00  0.0000E+00  0.0000E+00  0.1774E+02  0.7887E+00  0.0000E+00  0.0000E+00  0.0000E+00  0.0000E+00  0.0000E+00  0.0000E+00  0.0000E+00  0.0000E+00  0.0000E+00  0.0000E+00  0.0000E+00  0.0000E+00  0.0000E+00  0.0000E+00
REACH    1        0     5  0.5790E+01  0.1002E+00  0.1001E+00  0.1049E-03  0.0000E+00  0.5608E+03  0.3948E+02  0.1455E+03  0.1375E+00  0.1382E+00  0.2992E-01  0.3002E-01  0.8138E+01  0.8135E+01  0.1374E-01  0.4048E-01  0.0000E+00  0.0000E+00  0.1503E-02  0.3124E-02  0.7087E-03  0.4646E-03  0.1313E+05  0.1292E+05  0.2841E+04  0.2707E+04  0.0000E+00  0.0000E+00  0.0000E+00  0.0000E+00  0.0000E+00  0.0000E+00  0.0000E+00  0.0000E+00  0.0000E+00  0.0000E+00  0.0000E+00  0.0000E+00  0.0000E+00  0.0000E+00  0.0000E+00  0.0000E+00  0.0000E+00  0.8314E+01  0.3315E-01  0.0000E+00  0.0000E+00  0.0000E+00  0.0000E+00  0.0000E+00  0.0000E+00  0.0000E+00  0.0000E+00  0.0000E+00  0.0000E+00  0.0000E+00  0.0000E+00  0.0000E+00  0.0000E+00
REACH    2        0     5  0.2233E+01  0.4001E-01  0.3998E-01  0.3479E-04  0.0000E+00  0.3186E+03  0.3155E+03  0.1949E+04  0.8118E-01  0.8159E-01  0.1758E-01  0.1764E-01  0.3263E+01  0.3262E+01  0.0000E+00  0.7552E-02  0.0000E+00  0.0000E+00  0.4290E-03  0.8761E-03  0.5283E-03  0.3790E-03  0.7504E+04  0.7404E+04  0.1233E+04  0.1084E+04  0.0000E+00  0.0000E+00  0.0000E+00  0.0000E+00  0.0000E+00  0.0000E+00  0.0000E+00  0.0000E+00  0.0000E+00  0.0000E+00  0.0000E+00  0.0000E+00  0.0000E+00  0.0000E+00  0.0000E+00  0.0000E+00  0.0000E+00  0.3351E+01  0.1852E-01  0.0000E+00  0.0000E+00  0.0000E+00  0.0000E+00  0.0000E+00  0.0000E+00  0.0000E+00  0.0000E+00  0.0000E+00  0.0000E+00  0.0000E+00  0.0000E+00  0.0000E+00  0.0000E+00
REACH    3        0     5  0.1834E+01  0.3009E-01  0.3007E-01  0.2223E-04  0.0000E+00  0.1614E+03  0.1601E+03  0.1317E+04  0.2330E-01  0.2334E-01  0.5213E-02  0.5212E-02  0.2463E+01  0.2463E+01  0.0000E+00  0.6190E-02  0.0000E+00  0.0000E+00  0.1810E-03  0.4145E-03  0.2588E-03  0.1920E-03  0.3803E+04  0.3760E+04  0.9300E+03  0.8236E+03  0.0000E+00  0.0000E+00  0.0000E+00  0.0000E+00  0.0000E+00  0.0000E+00  0.0000E+00  0.0000E+00  0.0000E+00  0.0000E+00  0.0000E+00  0.0000E+00  0.0000E+00  0.0000E+00  0.0000E+00  0.0000E+00  0.0000E+00  0.2492E+01  0.5627E-02  0.0000E+00  0.0000E+00  0.0000E+00  0.0000E+00  0.0000E+00  0.0000E+00  0.0000E+00  0.0000E+00  0.0000E+00  0.0000E+00  0.0000E+00  0.0000E+00  0.0000E+00  0.0000E+00
REACH    1        0     6  0.5790E+01  0.4672E-01  0.4660E-01  0.1198E-03  0.0000E+00  0.9602E-07  0.1098E+02  0.8677E+02  0.5446E-05  0.0000E+00  0.1507E-04  0.0000E+00  0.1495E+01  0.1493E+01  0.9157E-02  0.2782E-01  0.0000E+00  0.1916E-04  0.5003E-05  0.0000E+00  0.8266E-12  0.0000E+00  0.0000E+00  0.0000E+00  0.1422E+04  0.1414E+04  0.0000E+00  0.0000E+00  0.0000E+00  0.0000E+00  0.0000E+00  0.0000E+00  0.0000E+00  0.0000E+00  0.0000E+00  0.0000E+00  0.0000E+00  0.0000E+00  0.0000E+00  0.0000E+00  0.0000E+00  0.0000E+00  0.0000E+00  0.1521E+01  0.0000E+00  0.0000E+00  0.0000E+00  0.0000E+00  0.0000E+00  0.0000E+00  0.0000E+00  0.0000E+00  0.0000E+00  0.0000E+00  0.0000E+00  0.0000E+00  0.0000E+00  0.0000E+00  0.0000E+00
REACH    2        0     6  0.2233E+01  0.1874E-01  0.1871E-01  0.3950E-04  0.0000E+00  0.9597E-07  0.0000E+00  0.0000E+00  0.7682E-05  0.0000E+00  0.1922E-04  0.0000E+00  0.5945E+00  0.5938E+00  0.0000E+00  0.5605E-02  0.0000E+00  0.0000E+00  0.6329E-05  0.0000E+00  0.1453E-11  0.0000E+00  0.0000E+00  0.0000E+00  0.5742E+03  0.5675E+03  0.0000E+00  0.0000E+00  0.0000E+00  0.0000E+00  0.0000E+00  0.0000E+00  0.0000E+00  0.0000E+00  0.0000E+00  0.0000E+00  0.0000E+00  0.0000E+00  0.0000E+00  0.0000E+00  0.0000E+00  0.0000E+00  0.0000E+00  0.5994E+00  0.0000E+00  0.0000E+00  0.0000E+00  0.0000E+00  0.0000E+00  0.0000E+00  0.0000E+00  0.0000E+00  0.0000E+00  0.0000E+00  0.0000E+00  0.0000E+00  0.0000E+00  0.0000E+00  0.0000E+00
REACH    3        0     6  0.1834E+01  0.1398E-01  0.1396E-01  0.2525E-04  0.0000E+00  0.2562E-06  0.0000E+00  0.0000E+00  0.5971E-05  0.0000E+00  0.1637E-04  0.0000E+00  0.4557E+00  0.4553E+00  0.0000E+00  0.3552E-02  0.0000E+00  0.0000E+00  0.5430E-05  0.0000E+00  0.9841E-12  0.0000E+00  0.0000E+00  0.0000E+00  0.4282E+03  0.4234E+03  0.0000E+00  0.0000E+00  0.0000E+00  0.0000E+00  0.0000E+00  0.0000E+00  0.0000E+00  0.0000E+00  0.0000E+00  0.0000E+00  0.0000E+00  0.0000E+00  0.0000E+00  0.0000E+00  0.0000E+00  0.0000E+00  0.0000E+00  0.4588E+00  0.0000E+00  0.0000E+00  0.0000E+00  0.0000E+00  0.0000E+00  0.0000E+00  0.0000E+00  0.0000E+00  0.0000E+00  0.0000E+00  0.0000E+00  0.0000E+00  0.0000E+00  0.0000E+00  0.0000E+00
REACH    1        0     7  0.5790E+01  0.1512E-01  0.1502E-01  0.1197E-03  0.0000E+00  0.1505E-06  0.2597E+01  0.5307E+02  0.6401E-05  0.0000E+00  0.3837E-04  0.2870E-04  0.1620E+00  0.1614E+00  0.7613E-02  0.2451E-01  0.0000E+00  0.7871E-04  0.9599E-05  0.1957E-04  0.4239E-11  0.0000E+00  0.0000E+00  0.0000E+00  0.4787E+03  0.4742E+03  0.0000E+00  0.0000E+00  0.0000E+00  0.0000E+00  0.0000E+00  0.0000E+00  0.0000E+00  0.0000E+00  0.0000E+00  0.0000E+00  0.0000E+00  0.0000E+00  0.0000E+00  0.0000E+00  0.0000E+00  0.0000E+00  0.0000E+00  0.1860E+00  0.4827E-04  0.0000E+00  0.0000E+00  0.0000E+00  0.0000E+00  0.0000E+00  0.0000E+00  0.0000E+00  0.0000E+00  0.0000E+00  0.0000E+00  0.0000E+00  0.0000E+00  0.0000E+00  0.0000E+00
REACH    2        0     7  0.2233E+01  0.6349E-02  0.6310E-02  0.3917E-04  0.0000E+00  0.9917E-07  0.0000E+00  0.0000E+00  0.6525E-05  0.0000E+00  0.1957E-04  0.1173E-04  0.6660E-01  0.6631E-01  0.0000E+00  0.4090E-02  0.0000E+00  0.0000E+00  0.6532E-05  0.0000E+00  0.5407E-11  0.0000E+00  0.0000E+00  0.0000E+00  0.2023E+03  0.1991E+03  0.0000E+00  0.0000E+00  0.0000E+00  0.0000E+00  0.0000E+00  0.0000E+00  0.0000E+00  0.0000E+00  0.0000E+00  0.0000E+00  0.0000E+00  0.0000E+00  0.0000E+00  0.0000E+00  0.0000E+00  0.0000E+00  0.0000E+00  0.7040E-01  0.1173E-04  0.0000E+00  0.0000E+00  0.0000E+00  0.0000E+00  0.0000E+00  0.0000E+00  0.0000E+00  0.0000E+00  0.0000E+00  0.0000E+00  0.0000E+00  0.0000E+00  0.0000E+00  0.0000E+00
REACH    3        0     7  0.1834E+01  0.4491E-02  0.4470E-02  0.2503E-04  0.0000E+00  0.2647E-06  0.5124E-07  0.1041E-04  0.5601E-05  0.1240E-05  0.1680E-04  0.1115E-04  0.4907E-01  0.4890E-01  0.0000E+00  0.3523E-02  0.0000E+00  0.0000E+00  0.5607E-05  0.4432E-05  0.4338E-11  0.0000E+00  0.0000E+00  0.0000E+00  0.1431E+03  0.1411E+03  0.0000E+00  0.0000E+00  0.0000E+00  0.0000E+00  0.0000E+00  0.0000E+00  0.0000E+00  0.0000E+00  0.0000E+00  0.0000E+00  0.0000E+00  0.0000E+00  0.0000E+00  0.0000E+00  0.0000E+00  0.0000E+00  0.0000E+00  0.5243E-01  0.1559E-04  0.0000E+00  0.0000E+00  0.0000E+00  0.0000E+00  0.0000E+00  0.0000E+00  0.0000E+00  0.0000E+00  0.0000E+00  0.0000E+00  0.0000E+00  0.0000E+00  0.0000E+00  0.0000E+00
REACH    1        0     8  0.5790E+01  0.4649E-02  0.4568E-02  0.8228E-04  0.0000E+00  0.3213E-06  0.2334E+00  0.1737E+02  0.1569E-04  0.1390E-04  0.5034E-04  0.4769E-04  0.7488E+00  0.7342E+00  0.8773E-02  0.3223E-01  0.4270E-05  0.1658E-03  0.4247E-04  0.1622E-03  0.6693E-11  0.0000E+00  0.0000E+00  0.0000E+00  0.1458E+03  0.1427E+03  0.0000E+00  0.0000E+00  0.0000E+00  0.0000E+00  0.0000E+00  0.0000E+00  0.0000E+00  0.0000E+00  0.0000E+00  0.0000E+00  0.0000E+00  0.0000E+00  0.0000E+00  0.0000E+00  0.0000E+00  0.0000E+00  0.0000E+00  0.7667E+00  0.2099E-03  0.0000E+00  0.0000E+00  0.0000E+00  0.0000E+00  0.0000E+00  0.0000E+00  0.0000E+00  0.0000E+00  0.0000E+00  0.0000E+00  0.0000E+00  0.0000E+00  0.0000E+00  0.0000E+00
REACH    2        0     8  0.2233E+01  0.1777E-02  0.1750E-02  0.2697E-04  0.0000E+00  0.9917E-07  0.0000E+00  0.0000E+00  0.6525E-05  0.5645E-05  0.1957E-04  0.1869E-04  0.2516E+00  0.2473E+00  0.0000E+00  0.2591E-02  0.0000E+00  0.4066E-05  0.6532E-05  0.2170E-04  0.1027E-10  0.0000E+00  0.0000E+00  0.0000E+00  0.5610E+02  0.5471E+02  0.0000E+00  0.0000E+00  0.0000E+00  0.0000E+00  0.0000E+00  0.0000E+00  0.0000E+00  0.0000E+00  0.0000E+00  0.0000E+00  0.0000E+00  0.0000E+00  0.0000E+00  0.0000E+00  0.0000E+00  0.0000E+00  0.0000E+00  0.2499E+00  0.4039E-04  0.0000E+00  0.0000E+00  0.0000E+00  0.0000E+00  0.0000E+00  0.0000E+00  0.0000E+00  0.0000E+00  0.0000E+00  0.0000E+00  0.0000E+00  0.0000E+00  0.0000E+00  0.0000E+00
REACH    3        0     8  0.1834E+01  0.1359E-02  0.1342E-02  0.1723E-04  0.0000E+00  0.2647E-06  0.2220E-06  0.7419E-04  0.5601E-05  0.4888E-05  0.1680E-04  0.1616E-04  0.2620E+00  0.2598E+00  0.0000E+00  0.6182E-02  0.0000E+00  0.2042E-06  0.5607E-05  0.1561E-04  0.8709E-11  0.0000E+00  0.0000E+00  0.0000E+00  0.4290E+02  0.4194E+02  0.0000E+00  0.0000E+00  0.0000E+00  0.0000E+00  0.0000E+00  0.0000E+00  0.0000E+00  0.0000E+00  0.0000E+00  0.0000E+00  0.0000E+00  0.0000E+00  0.0000E+00  0.0000E+00  0.0000E+00  0.0000E+00  0.0000E+00  0.2660E+00  0.3177E-04  0.0000E+00  0.0000E+00  0.0000E+00  0.0000E+00  0.0000E+00  0.0000E+00  0.0000E+00  0.0000E+00  0.0000E+00  0.0000E+00  0.0000E+00  0.0000E+00  0.0000E+00  0.0000E+00
REACH    1        0     9  0.5790E+01  0.5951E-02  0.5866E-02  0.8329E-04  0.0000E+00  0.3794E+03  0.6282E+00  0.1963E+02  0.1515E-01  0.1489E-01  0.3421E-02  0.3351E-02  0.1282E+01  0.1271E+01  0.7805E-02  0.3247E-01  0.6960E-05  0.1306E-03  0.3392E-03  0.7918E-03  0.2025E-02  0.0000E+00  0.1998E+05  0.1915E+05  0.1219E+03  0.9661E+02  0.0000E+00  0.0000E+00  0.0000E+00  0.0000E+00  0.0000E+00  0.0000E+00  0.0000E+00  0.0000E+00  0.0000E+00  0.0000E+00  0.0000E+00  0.0000E+00  0.0000E+00  0.0000E+00  0.0000E+00  0.0000E+00  0.0000E+00  0.1319E+01  0.4143E-02  0.0000E+00  0.0000E+00  0.0000E+00  0.0000E+00  0.0000E+00  0.0000E+00  0.0000E+00  0.0000E+00  0.0000E+00  0.0000E+00  0.0000E+00  0.0000E+00  0.0000E+00  0.0000E+00
REACH    2        0     9  0.2233E+01  0.2240E-02  0.2212E-02  0.2729E-04  0.0000E+00  0.2188E+03  0.2140E+03  0.5054E+04  0.8850E-02  0.8765E-02  0.1932E-02  0.1906E-02  0.4888E+00  0.4854E+00  0.0000E+00  0.2039E-02  0.0000E+00  0.6960E-05  0.8209E-04  0.1970E-03  0.4240E-02  0.5484E-03  0.1200E+05  0.1162E+05  0.5811E+02  0.3590E+02  0.0000E+00  0.0000E+00  0.0000E+00  0.0000E+00  0.0000E+00  0.0000E+00  0.0000E+00  0.0000E+00  0.0000E+00  0.0000E+00  0.0000E+00  0.0000E+00  0.0000E+00  0.0000E+00  0.0000E+00  0.0000E+00  0.0000E+00  0.4962E+00  0.2103E-02  0.0000E+00  0.0000E+00  0.0000E+00  0.0000E+00  0.0000E+00  0.0000E+00  0.0000E+00  0.0000E+00  0.0000E+00  0.0000E+00  0.0000E+00  0.0000E+00  0.0000E+00  0.0000E+00
REACH    3        0     9  0.1834E+01  0.1951E-02  0.1930E-02  0.1743E-04  0.0000E+00  0.1097E+03  0.1077E+03  0.3295E+04  0.3497E-02  0.3487E-02  0.8801E-03  0.8745E-03  0.4347E+00  0.4313E+00  0.0000E+00  0.5766E-02  0.0000E+00  0.0000E+00  0.4220E-04  0.1091E-03  0.2012E-02  0.5032E-03  0.5696E+04  0.5546E+04  0.5470E+02  0.3304E+02  0.0000E+00  0.0000E+00  0.0000E+00  0.0000E+00  0.0000E+00  0.0000E+00  0.0000E+00  0.0000E+00  0.0000E+00  0.0000E+00  0.0000E+00  0.0000E+00  0.0000E+00  0.0000E+00  0.0000E+00  0.0000E+00  0.0000E+00  0.4406E+00  0.9836E-03  0.0000E+00  0.0000E+00  0.0000E+00  0.0000E+00  0.0000E+00  0.0000E+00  0.0000E+00  0.0000E+00  0.0000E+00  0.0000E+00  0.0000E+00  0.0000E+00  0.0000E+00  0.0000E+00
REACH    1        0    10  0.5790E+01  0.3583E-01  0.3577E-01  0.4841E-04  0.0000E+00  0.6781E+04  0.1059E+02  0.7724E+02  0.8039E+01  0.8017E+01  0.1982E+01  0.1974E+01  0.1258E+02  0.1255E+02  0.1326E-01  0.3997E-01  0.1649E-06  0.4422E-04  0.1582E-01  0.2483E-01  0.8353E-01  0.4948E-01  0.3146E+06  0.3088E+06  0.4521E+03  0.1651E+03  0.0000E+00  0.0000E+00  0.0000E+00  0.0000E+00  0.0000E+00  0.0000E+00  0.0000E+00  0.0000E+00  0.0000E+00  0.0000E+00  0.0000E+00  0.0000E+00  0.0000E+00  0.0000E+00  0.0000E+00  0.0000E+00  0.0000E+00  0.2060E+02  0.1998E+01  0.0000E+00  0.0000E+00  0.0000E+00  0.0000E+00  0.0000E+00  0.0000E+00  0.0000E+00  0.0000E+00  0.0000E+00  0.0000E+00  0.0000E+00  0.0000E+00  0.0000E+00  0.0000E+00
REACH    2        0    10  0.2233E+01  0.1315E-01  0.1313E-01  0.1590E-04  0.0000E+00  0.3585E+04  0.3545E+04  0.2470E+05  0.7234E+01  0.7220E+01  0.1668E+01  0.1663E+01  0.4353E+01  0.4340E+01  0.0000E+00  0.9422E-02  0.0000E+00  0.0000E+00  0.6367E-02  0.1099E-01  0.1016E+00  0.6188E-01  0.1813E+06  0.1787E+06  0.3067E+03  0.5625E+02  0.0000E+00  0.0000E+00  0.0000E+00  0.0000E+00  0.0000E+00  0.0000E+00  0.0000E+00  0.0000E+00  0.0000E+00  0.0000E+00  0.0000E+00  0.0000E+00  0.0000E+00  0.0000E+00  0.0000E+00  0.0000E+00  0.0000E+00  0.1157E+02  0.1674E+01  0.0000E+00  0.0000E+00  0.0000E+00  0.0000E+00  0.0000E+00  0.0000E+00  0.0000E+00  0.0000E+00  0.0000E+00  0.0000E+00  0.0000E+00  0.0000E+00  0.0000E+00  0.0000E+00
REACH    3        0    10  0.1834E+01  0.1198E-01  0.1196E-01  0.1019E-04  0.0000E+00  0.2018E+04  0.2000E+04  0.1947E+05  0.2672E+00  0.2666E+00  0.1298E+00  0.1294E+00  0.4247E+01  0.4240E+01  0.0000E+00  0.3836E-02  0.0000E+00  0.1649E-06  0.1534E-02  0.2343E-02  0.9817E-02  0.5402E-02  0.8988E+05  0.8882E+05  0.3237E+03  0.8606E+02  0.0000E+00  0.0000E+00  0.0000E+00  0.0000E+00  0.0000E+00  0.0000E+00  0.0000E+00  0.0000E+00  0.0000E+00  0.0000E+00  0.0000E+00  0.0000E+00  0.0000E+00  0.0000E+00  0.0000E+00  0.0000E+00  0.0000E+00  0.4510E+01  0.1317E+00  0.0000E+00  0.0000E+00  0.0000E+00  0.0000E+00  0.0000E+00  0.0000E+00  0.0000E+00  0.0000E+00  0.0000E+00  0.0000E+00  0.0000E+00  0.0000E+00  0.0000E+00  0.0000E+00
REACH    1        0    11  0.5790E+01  0.1282E+00  0.1282E+00  0.3621E-04  0.0000E+00  0.3282E+05  0.6505E+02  0.1540E+03  0.1007E+03  0.1006E+03  0.2514E+02  0.2509E+02  0.9408E+02  0.9406E+02  0.6885E-01  0.1800E+00  0.0000E+00  0.0000E+00  0.1100E+00  0.1569E+00  0.1876E+01  0.1667E+01  0.1463E+07  0.1448E+07  0.1555E+04  0.7901E+03  0.0000E+00  0.0000E+00  0.0000E+00  0.0000E+00  0.0000E+00  0.0000E+00  0.0000E+00  0.0000E+00  0.0000E+00  0.0000E+00  0.0000E+00  0.0000E+00  0.0000E+00  0.0000E+00  0.0000E+00  0.0000E+00  0.0000E+00  0.1948E+03  0.2525E+02  0.0000E+00  0.0000E+00  0.0000E+00  0.0000E+00  0.0000E+00  0.0000E+00  0.0000E+00  0.0000E+00  0.0000E+00  0.0000E+00  0.0000E+00  0.0000E+00  0.0000E+00  0.0000E+00
REACH    2        0    11  0.2233E+01  0.4810E-01  0.4809E-01  0.1203E-04  0.0000E+00  0.1411E+05  0.1402E+05  0.3962E+05  0.9227E+02  0.9219E+02  0.2134E+02  0.2130E+02  0.3175E+02  0.3174E+02  0.0000E+00  0.6240E-01  0.0000E+00  0.0000E+00  0.5003E-01  0.7738E-01  0.1866E+01  0.1694E+01  0.7091E+06  0.7033E+06  0.1025E+04  0.2908E+03  0.0000E+00  0.0000E+00  0.0000E+00  0.0000E+00  0.0000E+00  0.0000E+00  0.0000E+00  0.0000E+00  0.0000E+00  0.0000E+00  0.0000E+00  0.0000E+00  0.0000E+00  0.0000E+00  0.0000E+00  0.0000E+00  0.0000E+00  0.1240E+03  0.2138E+02  0.0000E+00  0.0000E+00  0.0000E+00  0.0000E+00  0.0000E+00  0.0000E+00  0.0000E+00  0.0000E+00  0.0000E+00  0.0000E+00  0.0000E+00  0.0000E+00  0.0000E+00  0.0000E+00
REACH    3        0    11  0.1834E+01  0.4189E-01  0.4188E-01  0.7746E-05  0.0000E+00  0.1055E+05  0.1050E+05  0.3222E+05  0.2512E+01  0.2510E+01  0.1550E+01  0.1548E+01  0.3240E+02  0.3240E+02  0.0000E+00  0.6455E-02  0.0000E+00  0.0000E+00  0.1037E-01  0.1268E-01  0.5856E-01  0.5090E-01  0.4497E+06  0.4469E+06  0.1005E+04  0.2911E+03  0.0000E+00  0.0000E+00  0.0000E+00  0.0000E+00  0.0000E+00  0.0000E+00  0.0000E+00  0.0000E+00  0.0000E+00  0.0000E+00  0.0000E+00  0.0000E+00  0.0000E+00  0.0000E+00  0.0000E+00  0.0000E+00  0.0000E+00  0.3491E+02  0.1561E+01  0.0000E+00  0.0000E+00  0.0000E+00  0.0000E+00  0.0000E+00  0.0000E+00  0.0000E+00  0.0000E+00  0.0000E+00  0.0000E+00  0.0000E+00  0.0000E+00  0.0000E+00  0.0000E+00
REACH    1        0    12  0.5790E+01  0.1193E+00  0.1193E+00  0.3446E-04  0.0000E+00  0.2028E+05  0.6191E+02  0.1511E+03  0.5638E+02  0.5630E+02  0.1383E+02  0.1380E+02  0.5200E+02  0.5199E+02  0.4528E-01  0.1197E+00  0.0000E+00  0.0000E+00  0.7592E-01  0.1030E+00  0.7778E+00  0.6805E+00  0.8769E+06  0.8680E+06  0.1978E+04  0.1392E+04  0.0000E+00  0.0000E+00  0.0000E+00  0.0000E+00  0.0000E+00  0.0000E+00  0.0000E+00  0.0000E+00  0.0000E+00  0.0000E+00  0.0000E+00  0.0000E+00  0.0000E+00  0.0000E+00  0.0000E+00  0.0000E+00  0.0000E+00  0.1084E+03  0.1391E+02  0.0000E+00  0.0000E+00  0.0000E+00  0.0000E+00  0.0000E+00  0.0000E+00  0.0000E+00  0.0000E+00  0.0000E+00  0.0000E+00  0.0000E+00  0.0000E+00  0.0000E+00  0.0000E+00
REACH    2        0    12  0.2233E+01  0.4625E-01  0.4624E-01  0.1141E-04  0.0000E+00  0.8714E+04  0.8662E+04  0.2008E+05  0.5074E+02  0.5069E+02  0.1170E+02  0.1169E+02  0.1779E+02  0.1779E+02  0.0000E+00  0.3899E-01  0.0000E+00  0.0000E+00  0.3643E-01  0.5236E-01  0.7788E+00  0.6989E+00  0.4332E+06  0.4299E+06  0.1108E+04  0.5548E+03  0.0000E+00  0.0000E+00  0.0000E+00  0.0000E+00  0.0000E+00  0.0000E+00  0.0000E+00  0.0000E+00  0.0000E+00  0.0000E+00  0.0000E+00  0.0000E+00  0.0000E+00  0.0000E+00  0.0000E+00  0.0000E+00  0.0000E+00  0.6852E+02  0.1174E+02  0.0000E+00  0.0000E+00  0.0000E+00  0.0000E+00  0.0000E+00  0.0000E+00  0.0000E+00  0.0000E+00  0.0000E+00  0.0000E+00  0.0000E+00  0.0000E+00  0.0000E+00  0.0000E+00
REACH    3        0    12  0.1834E+01  0.3777E-01  0.3776E-01  0.7327E-05  0.0000E+00  0.6516E+04  0.6486E+04  0.1790E+05  0.1665E+01  0.1663E+01  0.8280E+00  0.8269E+00  0.1779E+02  0.1779E+02  0.0000E+00  0.6287E-02  0.0000E+00  0.0000E+00  0.7483E-02  0.8963E-02  0.2594E-01  0.2258E-01  0.2675E+06  0.2659E+06  0.9696E+03  0.4686E+03  0.0000E+00  0.0000E+00  0.0000E+00  0.0000E+00  0.0000E+00  0.0000E+00  0.0000E+00  0.0000E+00  0.0000E+00  0.0000E+00  0.0000E+00  0.0000E+00  0.0000E+00  0.0000E+00  0.0000E+00  0.0000E+00  0.0000E+00  0.1946E+02  0.8358E+00  0.0000E+00  0.0000E+00  0.0000E+00  0.0000E+00  0.0000E+00  0.0000E+00  0.0000E+00  0.0000E+00  0.0000E+00  0.0000E+00  0.0000E+00  0.0000E+00  0.0000E+00  0.0000E+00
REACH    1        0  1982  0.5790E+01  0.1559E+00  0.1559E+00  0.6937E-04  0.0000E+00  0.3614E+06  0.1272E+04  0.1422E+03  0.4186E+05  0.4183E+05  0.9248E+04  0.9236E+04  0.1006E+04  0.1005E+04  0.8474E+01  0.2543E+02  0.1760E-04  0.8826E-02  0.7644E+01  0.1898E+02  0.7101E+03  0.6606E+03  0.1531E+08  0.1518E+08  0.2616E+05  0.1580E+05  0.0000E+00  0.0000E+00  0.0000E+00  0.0000E+00  0.0000E+00  0.0000E+00  0.0000E+00  0.0000E+00  0.0000E+00  0.0000E+00  0.0000E+00  0.0000E+00  0.0000E+00  0.0000E+00  0.0000E+00  0.0000E+00  0.0000E+00  0.4286E+05  0.9255E+04  0.0000E+00  0.0000E+00  0.0000E+00  0.0000E+00  0.0000E+00  0.0000E+00  0.0000E+00  0.0000E+00  0.0000E+00  0.0000E+00  0.0000E+00  0.0000E+00  0.0000E+00  0.0000E+00
REACH    2        0  1982  0.2233E+01  0.6025E-01  0.6023E-01  0.2296E-04  0.0000E+00  0.1458E+06  0.1450E+06  0.2048E+05  0.1464E+05  0.1463E+05  0.3228E+04  0.3225E+04  0.3509E+03  0.3508E+03  0.0000E+00  0.4948E+01  0.0000E+00  0.1723E-04  0.1759E+01  0.4199E+01  0.2825E+03  0.2647E+03  0.7017E+07  0.6973E+07  0.1675E+05  0.6312E+04  0.0000E+00  0.0000E+00  0.0000E+00  0.0000E+00  0.0000E+00  0.0000E+00  0.0000E+00  0.0000E+00  0.0000E+00  0.0000E+00  0.0000E+00  0.0000E+00  0.0000E+00  0.0000E+00  0.0000E+00  0.0000E+00  0.0000E+00  0.1498E+05  0.3229E+04  0.0000E+00  0.0000E+00  0.0000E+00  0.0000E+00  0.0000E+00  0.0000E+00  0.0000E+00  0.0000E+00  0.0000E+00  0.0000E+00  0.0000E+00  0.0000E+00  0.0000E+00  0.0000E+00
REACH    3        0  1982  0.1834E+01  0.4929E-01  0.4927E-01  0.1473E-04  0.0000E+00  0.1184E+06  0.1179E+06  0.1781E+05  0.1387E+05  0.1386E+05  0.3067E+04  0.3065E+04  0.3365E+03  0.3364E+03  0.0000E+00  0.3526E+01  0.0000E+00  0.3691E-06  0.9336E+00  0.2439E+01  0.2384E+03  0.2274E+03  0.4804E+07  0.4781E+07  0.1459E+05  0.5463E+04  0.0000E+00  0.0000E+00  0.0000E+00  0.0000E+00  0.0000E+00  0.0000E+00  0.0000E+00  0.0000E+00  0.0000E+00  0.0000E+00  0.0000E+00  0.0000E+00  0.0000E+00  0.0000E+00  0.0000E+00  0.0000E+00  0.0000E+00  0.1420E+05  0.3068E+04  0.0000E+00  0.0000E+00  0.0000E+00  0.0000E+00  0.0000E+00  0.0000E+00  0.0000E+00  0.0000E+00  0.0000E+00  0.0000E+00  0.0000E+00  0.0000E+00  0.0000E+00  0.0000E+00
REACH    1        0     1  0.5790E+01  0.2243E+00  0.2242E+00  0.3450E-04  0.0000E+00  0.4690E+05  0.1521E+03  0.1966E+03  0.1141E+05  0.1140E+05  0.2500E+04  0.2495E+04  0.8452E+02  0.8436E+02  0.3055E+01  0.8995E+01  0.1137E-04  0.4874E-02  0.1606E+01  0.4654E+01  0.2410E+03  0.2195E+03  0.2072E+07  0.2052E+07  0.2366E+04  0.1001E+04  0.0000E+00  0.0000E+00  0.0000E+00  0.0000E+00  0.0000E+00  0.0000E+00  0.0000E+00  0.0000E+00  0.0000E+00  0.0000E+00  0.0000E+00  0.0000E+00  0.0000E+00  0.0000E+00  0.0000E+00  0.0000E+00  0.0000E+00  0.1149E+05  0.2500E+04  0.0000E+00  0.0000E+00  0.0000E+00  0.0000E+00  0.0000E+00  0.0000E+00  0.0000E+00  0.0000E+00  0.0000E+00  0.0000E+00  0.0000E+00  0.0000E+00  0.0000E+00  0.0000E+00
REACH    2        0     1  0.2233E+01  0.8616E-01  0.8613E-01  0.1145E-04  0.0000E+00  0.1969E+05  0.1958E+05  0.3988E+05  0.4426E+04  0.4421E+04  0.9702E+03  0.9688E+03  0.2875E+02  0.2871E+02  0.0000E+00  0.1846E+01  0.0000E+00  0.1137E-04  0.3341E+00  0.9360E+00  0.1098E+03  0.1005E+03  0.9838E+06  0.9765E+06  0.1728E+04  0.4081E+03  0.0000E+00  0.0000E+00  0.0000E+00  0.0000E+00  0.0000E+00  0.0000E+00  0.0000E+00  0.0000E+00  0.0000E+00  0.0000E+00  0.0000E+00  0.0000E+00  0.0000E+00  0.0000E+00  0.0000E+00  0.0000E+00  0.0000E+00  0.4452E+04  0.9698E+03  0.0000E+00  0.0000E+00  0.0000E+00  0.0000E+00  0.0000E+00  0.0000E+00  0.0000E+00  0.0000E+00  0.0000E+00  0.0000E+00  0.0000E+00  0.0000E+00  0.0000E+00  0.0000E+00
REACH    3        0     1  0.1834E+01  0.7187E-01  0.7185E-01  0.7367E-05  0.0000E+00  0.1517E+05  0.1511E+05  0.3452E+05  0.3746E+04  0.3743E+04  0.8204E+03  0.8196E+03  0.2901E+02  0.2900E+02  0.0000E+00  0.1208E+01  0.0000E+00  0.0000E+00  0.1749E+00  0.5095E+00  0.8083E+02  0.7608E+02  0.6419E+06  0.6384E+06  0.1603E+04  0.3801E+03  0.0000E+00  0.0000E+00  0.0000E+00  0.0000E+00  0.0000E+00  0.0000E+00  0.0000E+00  0.0000E+00  0.0000E+00  0.0000E+00  0.0000E+00  0.0000E+00  0.0000E+00  0.0000E+00  0.0000E+00  0.0000E+00  0.0000E+00  0.3773E+04  0.8201E+03  0.0000E+00  0.0000E+00  0.0000E+00  0.0000E+00  0.0000E+00  0.0000E+00  0.0000E+00  0.0000E+00  0.0000E+00  0.0000E+00  0.0000E+00  0.0000E+00  0.0000E+00  0.0000E+00
REACH    1        0     2  0.5790E+01  0.3949E+00  0.3948E+00  0.5782E-04  0.0000E+00  0.1865E+06  0.3310E+03  0.2397E+03  0.6135E+04  0.6131E+04  0.1361E+04  0.1359E+04  0.6381E+02  0.6376E+02  0.1682E+01  0.4999E+01  0.0000E+00  0.8373E-03  0.1565E+01  0.2977E+01  0.1787E+03  0.1717E+03  0.1062E+08  0.1056E+08  0.3380E+04  0.1575E+04  0.0000E+00  0.0000E+00  0.0000E+00  0.0000E+00  0.0000E+00  0.0000E+00  0.0000E+00  0.0000E+00  0.0000E+00  0.0000E+00  0.0000E+00  0.0000E+00  0.0000E+00  0.0000E+00  0.0000E+00  0.0000E+00  0.0000E+00  0.6200E+04  0.1362E+04  0.0000E+00  0.0000E+00  0.0000E+00  0.0000E+00  0.0000E+00  0.0000E+00  0.0000E+00  0.0000E+00  0.0000E+00  0.0000E+00  0.0000E+00  0.0000E+00  0.0000E+00  0.0000E+00
REACH    2        0     2  0.2233E+01  0.1526E+00  0.1526E+00  0.1944E-04  0.0000E+00  0.6380E+05  0.6359E+05  0.3143E+05  0.2270E+04  0.2269E+04  0.5038E+03  0.5034E+03  0.2152E+02  0.2151E+02  0.0000E+00  0.9716E+00  0.0000E+00  0.0000E+00  0.5441E+00  0.9139E+00  0.7069E+02  0.6834E+02  0.3920E+07  0.3903E+07  0.2402E+04  0.6721E+03  0.0000E+00  0.0000E+00  0.0000E+00  0.0000E+00  0.0000E+00  0.0000E+00  0.0000E+00  0.0000E+00  0.0000E+00  0.0000E+00  0.0000E+00  0.0000E+00  0.0000E+00  0.0000E+00  0.0000E+00  0.0000E+00  0.0000E+00  0.2292E+04  0.5043E+03  0.0000E+00  0.0000E+00  0.0000E+00  0.0000E+00  0.0000E+00  0.0000E+00  0.0000E+00  0.0000E+00  0.0000E+00  0.0000E+00  0.0000E+00  0.0000E+00  0.0000E+00  0.0000E+00
REACH    3        0     2  0.1834E+01  0.1255E+00  0.1255E+00  0.1255E-04  0.0000E+00  0.6386E+05  0.6370E+05  0.2784E+05  0.1928E+04  0.1927E+04  0.4278E+03  0.4276E+03  0.2182E+02  0.2181E+02  0.0000E+00  0.7104E+00  0.0000E+00  0.0000E+00  0.2064E+00  0.3672E+00  0.5622E+02  0.5472E+02  0.3563E+07  0.3551E+07  0.2109E+04  0.6619E+03  0.0000E+00  0.0000E+00  0.0000E+00  0.0000E+00  0.0000E+00  0.0000E+00  0.0000E+00  0.0000E+00  0.0000E+00  0.0000E+00  0.0000E+00  0.0000E+00  0.0000E+00  0.0000E+00  0.0000E+00  0.0000E+00  0.0000E+00  0.1949E+04  0.4279E+03  0.0000E+00  0.0000E+00  0.0000E+00  0.0000E+00  0.0000E+00  0.0000E+00  0.0000E+00  0.0000E+00  0.0000E+00  0.0000E+00  0.0000E+00  0.0000E+00  0.0000E+00  0.0000E+00
REACH    1        0     3  0.5790E+01  0.4030E+00  0.4028E+00  0.7479E-04  0.0000E+00  0.1242E+06  0.3340E+03  0.2666E+03  0.1494E+03  0.1491E+03  0.3873E+02  0.3863E+02  0.7765E+02  0.7764E+02  0.7187E-01  0.2039E+00  0.0000E+00  0.0000E+00  0.4484E+00  0.5114E+00  0.2287E+01  0.2091E+01  0.5721E+07  0.5664E+07  0.3627E+04  0.1408E+04  0.0000E+00  0.0000E+00  0.0000E+00  0.0000E+00  0.0000E+00  0.0000E+00  0.0000E+00  0.0000E+00  0.0000E+00  0.0000E+00  0.0000E+00  0.0000E+00  0.0000E+00  0.0000E+00  0.0000E+00  0.0000E+00  0.0000E+00  0.2269E+03  0.3914E+02  0.0000E+00  0.0000E+00  0.0000E+00  0.0000E+00  0.0000E+00  0.0000E+00  0.0000E+00  0.0000E+00  0.0000E+00  0.0000E+00  0.0000E+00  0.0000E+00  0.0000E+00  0.0000E+00
REACH    2        0     3  0.2233E+01  0.1556E+00  0.1555E+00  0.2526E-04  0.0000E+00  0.4799E+05  0.4776E+05  0.5812E+05  0.1010E+03  0.1008E+03  0.2395E+02  0.2391E+02  0.2697E+02  0.2697E+02  0.0000E+00  0.5541E-01  0.0000E+00  0.0000E+00  0.2476E+00  0.2759E+00  0.1643E+01  0.1524E+01  0.2499E+07  0.2481E+07  0.2877E+04  0.5050E+03  0.0000E+00  0.0000E+00  0.0000E+00  0.0000E+00  0.0000E+00  0.0000E+00  0.0000E+00  0.0000E+00  0.0000E+00  0.0000E+00  0.0000E+00  0.0000E+00  0.0000E+00  0.0000E+00  0.0000E+00  0.0000E+00  0.0000E+00  0.1278E+03  0.2418E+02  0.0000E+00  0.0000E+00  0.0000E+00  0.0000E+00  0.0000E+00  0.0000E+00  0.0000E+00  0.0000E+00  0.0000E+00  0.0000E+00  0.0000E+00  0.0000E+00  0.0000E+00  0.0000E+00
REACH    3        0     3  0.1834E+01  0.1286E+00  0.1286E+00  0.1639E-04  0.0000E+00  0.4121E+05  0.4107E+05  0.5412E+05  0.1404E+02  0.1402E+02  0.5226E+01  0.5218E+01  0.2634E+02  0.2634E+02  0.0000E+00  0.1646E-01  0.0000E+00  0.0000E+00  0.5877E-01  0.6422E-01  0.2327E+00  0.2183E+00  0.1828E+07  0.1818E+07  0.2665E+04  0.4845E+03  0.0000E+00  0.0000E+00  0.0000E+00  0.0000E+00  0.0000E+00  0.0000E+00  0.0000E+00  0.0000E+00  0.0000E+00  0.0000E+00  0.0000E+00  0.0000E+00  0.0000E+00  0.0000E+00  0.0000E+00  0.0000E+00  0.0000E+00  0.4037E+02  0.5282E+01  0.0000E+00  0.0000E+00  0.0000E+00  0.0000E+00  0.0000E+00  0.0000E+00  0.0000E+00  0.0000E+00  0.0000E+00  0.0000E+00  0.0000E+00  0.0000E+00  0.0000E+00  0.0000E+00
REACH    1        0     4  0.5790E+01  0.2400E+00  0.2401E+00  0.6952E-04  0.0000E+00  0.2635E+05  0.1479E+03  0.2192E+03  0.4270E+02  0.4273E+02  0.9484E+01  0.9488E+01  0.3797E+02  0.3797E+02  0.3343E-01  0.9715E-01  0.0000E+00  0.0000E+00  0.1280E+00  0.1499E+00  0.3915E+00  0.3392E+00  0.1026E+07  0.1025E+07  0.3865E+04  0.2669E+04  0.0000E+00  0.0000E+00  0.0000E+00  0.0000E+00  0.0000E+00  0.0000E+00  0.0000E+00  0.0000E+00  0.0000E+00  0.0000E+00  0.0000E+00  0.0000E+00  0.0000E+00  0.0000E+00  0.0000E+00  0.0000E+00  0.0000E+00  0.8079E+02  0.9638E+01  0.0000E+00  0.0000E+00  0.0000E+00  0.0000E+00  0.0000E+00  0.0000E+00  0.0000E+00  0.0000E+00  0.0000E+00  0.0000E+00  0.0000E+00  0.0000E+00  0.0000E+00  0.0000E+00
REACH    2        0     4  0.2233E+01  0.9220E-01  0.9222E-01  0.2332E-04  0.0000E+00  0.1165E+05  0.1159E+05  0.2498E+05  0.2840E+02  0.2842E+02  0.6238E+01  0.6239E+01  0.1379E+02  0.1379E+02  0.0000E+00  0.2255E-01  0.0000E+00  0.0000E+00  0.6944E-01  0.7943E-01  0.2849E+00  0.2518E+00  0.5144E+06  0.5130E+06  0.2331E+04  0.1030E+04  0.0000E+00  0.0000E+00  0.0000E+00  0.0000E+00  0.0000E+00  0.0000E+00  0.0000E+00  0.0000E+00  0.0000E+00  0.0000E+00  0.0000E+00  0.0000E+00  0.0000E+00  0.0000E+00  0.0000E+00  0.0000E+00  0.0000E+00  0.4223E+02  0.6318E+01  0.0000E+00  0.0000E+00  0.0000E+00  0.0000E+00  0.0000E+00  0.0000E+00  0.0000E+00  0.0000E+00  0.0000E+00  0.0000E+00  0.0000E+00  0.0000E+00  0.0000E+00  0.0000E+00
REACH    3        0     4  0.1834E+01  0.7516E-01  0.7516E-01  0.1508E-04  0.0000E+00  0.8380E+04  0.8342E+04  0.2147E+05  0.4256E+01  0.4257E+01  0.1004E+01  0.1004E+01  0.1258E+02  0.1258E+02  0.0000E+00  0.1087E-01  0.0000E+00  0.0000E+00  0.1579E-01  0.1771E-01  0.4623E-01  0.4190E-01  0.3097E+06  0.3095E+06  0.1976E+04  0.8657E+03  0.0000E+00  0.0000E+00  0.0000E+00  0.0000E+00  0.0000E+00  0.0000E+00  0.0000E+00  0.0000E+00  0.0000E+00  0.0000E+00  0.0000E+00  0.0000E+00  0.0000E+00  0.0000E+00  0.0000E+00  0.0000E+00  0.0000E+00  0.1685E+02  0.1022E+01  0.0000E+00  0.0000E+00  0.0000E+00  0.0000E+00  0.0000E+00  0.0000E+00  0.0000E+00  0.0000E+00  0.0000E+00  0.0000E+00  0.0000E+00  0.0000E+00  0.0000E+00  0.0000E+00
REACH    1        0     5  0.5790E+01  0.1058E+00  0.1057E+00  0.9127E-04  0.0000E+00  0.3413E+03  0.4146E+02  0.1452E+03  0.4286E-01  0.4292E-01  0.9267E-02  0.9253E-02  0.4736E+01  0.4735E+01  0.1507E-01  0.4468E-01  0.0000E+00  0.0000E+00  0.5281E-03  0.1232E-02  0.1917E-03  0.1270E-03  0.5388E+04  0.5299E+04  0.3043E+04  0.2937E+04  0.0000E+00  0.0000E+00  0.0000E+00  0.0000E+00  0.0000E+00  0.0000E+00  0.0000E+00  0.0000E+00  0.0000E+00  0.0000E+00  0.0000E+00  0.0000E+00  0.0000E+00  0.0000E+00  0.0000E+00  0.0000E+00  0.0000E+00  0.4822E+01  0.1049E-01  0.0000E+00  0.0000E+00  0.0000E+00  0.0000E+00  0.0000E+00  0.0000E+00  0.0000E+00  0.0000E+00  0.0000E+00  0.0000E+00  0.0000E+00  0.0000E+00  0.0000E+00  0.0000E+00
REACH    2        0     5  0.2233E+01  0.4211E-01  0.4209E-01  0.3023E-04  0.0000E+00  0.1935E+03  0.1917E+03  0.1185E+04  0.2072E-01  0.2074E-01  0.4485E-02  0.4470E-02  0.1918E+01  0.1918E+01  0.0000E+00  0.8146E-02  0.0000E+00  0.0000E+00  0.1207E-03  0.2967E-03  0.1499E-03  0.9909E-04  0.3041E+04  0.3000E+04  0.1286E+04  0.1171E+04  0.0000E+00  0.0000E+00  0.0000E+00  0.0000E+00  0.0000E+00  0.0000E+00  0.0000E+00  0.0000E+00  0.0000E+00  0.0000E+00  0.0000E+00  0.0000E+00  0.0000E+00  0.0000E+00  0.0000E+00  0.0000E+00  0.0000E+00  0.1947E+01  0.4767E-02  0.0000E+00  0.0000E+00  0.0000E+00  0.0000E+00  0.0000E+00  0.0000E+00  0.0000E+00  0.0000E+00  0.0000E+00  0.0000E+00  0.0000E+00  0.0000E+00  0.0000E+00  0.0000E+00
REACH    3        0     5  0.1834E+01  0.3177E-01  0.3175E-01  0.1938E-04  0.0000E+00  0.9844E+02  0.9765E+02  0.7972E+03  0.9719E-02  0.9722E-02  0.2129E-02  0.2114E-02  0.1432E+01  0.1432E+01  0.0000E+00  0.6925E-02  0.0000E+00  0.0000E+00  0.6732E-04  0.1591E-03  0.7497E-04  0.5286E-04  0.1577E+04  0.1559E+04  0.9717E+03  0.8936E+03  0.0000E+00  0.0000E+00  0.0000E+00  0.0000E+00  0.0000E+00  0.0000E+00  0.0000E+00  0.0000E+00  0.0000E+00  0.0000E+00  0.0000E+00  0.0000E+00  0.0000E+00  0.0000E+00  0.0000E+00  0.0000E+00  0.0000E+00  0.1448E+01  0.2273E-02  0.0000E+00  0.0000E+00  0.0000E+00  0.0000E+00  0.0000E+00  0.0000E+00  0.0000E+00  0.0000E+00  0.0000E+00  0.0000E+00  0.0000E+00  0.0000E+00  0.0000E+00  0.0000E+00
REACH    1        0     6  0.5790E+01  0.5330E-01  0.5320E-01  0.1004E-03  0.0000E+00  0.2247E+02  0.1430E+02  0.9900E+02  0.5145E-05  0.0000E+00  0.1682E-04  0.0000E+00  0.9857E+00  0.9844E+00  0.9407E-02  0.2948E-01  0.0000E+00  0.0000E+00  0.6617E-05  0.0000E+00  0.9874E-05  0.0000E+00  0.6963E+02  0.6800E+02  0.1573E+04  0.1553E+04  0.0000E+00  0.0000E+00  0.0000E+00  0.0000E+00  0.0000E+00  0.0000E+00  0.0000E+00  0.0000E+00  0.0000E+00  0.0000E+00  0.0000E+00  0.0000E+00  0.0000E+00  0.0000E+00  0.0000E+00  0.0000E+00  0.0000E+00  0.1014E+01  0.0000E+00  0.0000E+00  0.0000E+00  0.0000E+00  0.0000E+00  0.0000E+00  0.0000E+00  0.0000E+00  0.0000E+00  0.0000E+00  0.0000E+00  0.0000E+00  0.0000E+00  0.0000E+00  0.0000E+00
REACH    2        0     6  0.2233E+01  0.2128E-01  0.2125E-01  0.3335E-04  0.0000E+00  0.1273E+02  0.1255E+02  0.1814E+03  0.6789E-05  0.0000E+00  0.1895E-04  0.0000E+00  0.3958E+00  0.3955E+00  0.0000E+00  0.5760E-02  0.0000E+00  0.0000E+00  0.1061E-04  0.0000E+00  0.1046E-04  0.4527E-05  0.3935E+02  0.3858E+02  0.6466E+03  0.6173E+03  0.0000E+00  0.0000E+00  0.0000E+00  0.0000E+00  0.0000E+00  0.0000E+00  0.0000E+00  0.0000E+00  0.0000E+00  0.0000E+00  0.0000E+00  0.0000E+00  0.0000E+00  0.0000E+00  0.0000E+00  0.0000E+00  0.0000E+00  0.4013E+00  0.0000E+00  0.0000E+00  0.0000E+00  0.0000E+00  0.0000E+00  0.0000E+00  0.0000E+00  0.0000E+00  0.0000E+00  0.0000E+00  0.0000E+00  0.0000E+00  0.0000E+00  0.0000E+00  0.0000E+00
REACH    3        0     6  0.1834E+01  0.1598E-01  0.1596E-01  0.2130E-04  0.0000E+00  0.6523E+01  0.6446E+01  0.1199E+03  0.5661E-05  0.0000E+00  0.1757E-04  0.1834E-05  0.3010E+00  0.3008E+00  0.0000E+00  0.3647E-02  0.0000E+00  0.0000E+00  0.7538E-05  0.0000E+00  0.5264E-05  0.2799E-05  0.2048E+02  0.2015E+02  0.4857E+03  0.4662E+03  0.0000E+00  0.0000E+00  0.0000E+00  0.0000E+00  0.0000E+00  0.0000E+00  0.0000E+00  0.0000E+00  0.0000E+00  0.0000E+00  0.0000E+00  0.0000E+00  0.0000E+00  0.0000E+00  0.0000E+00  0.0000E+00  0.0000E+00  0.3044E+00  0.1834E-05  0.0000E+00  0.0000E+00  0.0000E+00  0.0000E+00  0.0000E+00  0.0000E+00  0.0000E+00  0.0000E+00  0.0000E+00  0.0000E+00  0.0000E+00  0.0000E+00  0.0000E+00  0.0000E+00
REACH    1        0     7  0.5790E+01  0.1999E-01  0.1991E-01  0.9732E-04  0.0000E+00  0.9922E-07  0.3555E+01  0.6112E+02  0.5162E-05  0.0000E+00  0.3211E-04  0.2085E-04  0.2800E+00  0.2786E+00  0.8086E-02  0.2596E-01  0.0000E+00  0.5520E-04  0.5167E-05  0.0000E+00  0.2473E-11  0.0000E+00  0.0000E+00  0.0000E+00  0.6160E+03  0.6117E+03  0.0000E+00  0.0000E+00  0.0000E+00  0.0000E+00  0.0000E+00  0.0000E+00  0.0000E+00  0.0000E+00  0.0000E+00  0.0000E+00  0.0000E+00  0.0000E+00  0.0000E+00  0.0000E+00  0.0000E+00  0.0000E+00  0.0000E+00  0.3046E+00  0.2085E-04  0.0000E+00  0.0000E+00  0.0000E+00  0.0000E+00  0.0000E+00  0.0000E+00  0.0000E+00  0.0000E+00  0.0000E+00  0.0000E+00  0.0000E+00  0.0000E+00  0.0000E+00  0.0000E+00
REACH    2        0     7  0.2233E+01  0.8090E-02  0.8059E-02  0.3180E-04  0.0000E+00  0.9917E-07  0.0000E+00  0.0000E+00  0.6525E-05  0.0000E+00  0.1957E-04  0.8665E-05  0.1029E+00  0.1025E+00  0.0000E+00  0.4802E-02  0.0000E+00  0.0000E+00  0.6532E-05  0.0000E+00  0.3730E-11  0.0000E+00  0.0000E+00  0.0000E+00  0.2513E+03  0.2477E+03  0.0000E+00  0.0000E+00  0.0000E+00  0.0000E+00  0.0000E+00  0.0000E+00  0.0000E+00  0.0000E+00  0.0000E+00  0.0000E+00  0.0000E+00  0.0000E+00  0.0000E+00  0.0000E+00  0.0000E+00  0.0000E+00  0.0000E+00  0.1073E+00  0.8665E-05  0.0000E+00  0.0000E+00  0.0000E+00  0.0000E+00  0.0000E+00  0.0000E+00  0.0000E+00  0.0000E+00  0.0000E+00  0.0000E+00  0.0000E+00  0.0000E+00  0.0000E+00  0.0000E+00
REACH    3        0     7  0.1834E+01  0.5842E-02  0.5822E-02  0.2032E-04  0.0000E+00  0.2647E-06  0.0000E+00  0.0000E+00  0.5601E-05  0.0000E+00  0.1680E-04  0.7962E-05  0.9087E-01  0.9046E-01  0.0000E+00  0.3284E-02  0.0000E+00  0.0000E+00  0.5607E-05  0.0000E+00  0.3067E-11  0.0000E+00  0.0000E+00  0.0000E+00  0.1813E+03  0.1788E+03  0.0000E+00  0.0000E+00  0.0000E+00  0.0000E+00  0.0000E+00  0.0000E+00  0.0000E+00  0.0000E+00  0.0000E+00  0.0000E+00  0.0000E+00  0.0000E+00  0.0000E+00  0.0000E+00  0.0000E+00  0.0000E+00  0.0000E+00  0.9374E-01  0.7962E-05  0.0000E+00  0.0000E+00  0.0000E+00  0.0000E+00  0.0000E+00  0.0000E+00  0.0000E+00  0.0000E+00  0.0000E+00  0.0000E+00  0.0000E+00  0.0000E+00  0.0000E+00  0.0000E+00
REACH    1        0     8  0.5790E+01  0.4829E-02  0.4741E-02  0.8887E-04  0.0000E+00  0.2956E-06  0.2733E+00  0.1804E+02  0.1367E-04  0.1053E-04  0.5025E-04  0.4724E-04  0.3550E+00  0.3465E+00  0.8684E-02  0.3262E-01  0.6325E-05  0.1636E-03  0.3677E-04  0.1437E-03  0.7502E-11  0.0000E+00  0.0000E+00  0.0000E+00  0.1485E+03  0.1453E+03  0.0000E+00  0.0000E+00  0.0000E+00  0.0000E+00  0.0000E+00  0.0000E+00  0.0000E+00  0.0000E+00  0.0000E+00  0.0000E+00  0.0000E+00  0.0000E+00  0.0000E+00  0.0000E+00  0.0000E+00  0.0000E+00  0.0000E+00  0.3793E+00  0.1909E-03  0.0000E+00  0.0000E+00  0.0000E+00  0.0000E+00  0.0000E+00  0.0000E+00  0.0000E+00  0.0000E+00  0.0000E+00  0.0000E+00  0.0000E+00  0.0000E+00  0.0000E+00  0.0000E+00
REACH    2        0     8  0.2233E+01  0.1982E-02  0.1953E-02  0.2913E-04  0.0000E+00  0.9917E-07  0.0000E+00  0.0000E+00  0.6525E-05  0.4174E-05  0.1957E-04  0.1863E-04  0.1202E+00  0.1178E+00  0.0000E+00  0.2781E-02  0.0000E+00  0.5888E-05  0.6532E-05  0.1826E-04  0.1023E-10  0.0000E+00  0.0000E+00  0.0000E+00  0.6142E+02  0.5990E+02  0.0000E+00  0.0000E+00  0.0000E+00  0.0000E+00  0.0000E+00  0.0000E+00  0.0000E+00  0.0000E+00  0.0000E+00  0.0000E+00  0.0000E+00  0.0000E+00  0.0000E+00  0.0000E+00  0.0000E+00  0.0000E+00  0.0000E+00  0.1206E+00  0.3689E-04  0.0000E+00  0.0000E+00  0.0000E+00  0.0000E+00  0.0000E+00  0.0000E+00  0.0000E+00  0.0000E+00  0.0000E+00  0.0000E+00  0.0000E+00  0.0000E+00  0.0000E+00  0.0000E+00
REACH    3        0     8  0.1834E+01  0.1418E-02  0.1403E-02  0.1861E-04  0.0000E+00  0.2647E-06  0.1964E-06  0.7215E-04  0.5601E-05  0.4339E-05  0.1680E-04  0.1614E-04  0.1244E+00  0.1230E+00  0.0000E+00  0.5904E-02  0.0000E+00  0.4367E-06  0.5607E-05  0.1335E-04  0.8790E-11  0.0000E+00  0.0000E+00  0.0000E+00  0.4391E+02  0.4299E+02  0.0000E+00  0.0000E+00  0.0000E+00  0.0000E+00  0.0000E+00  0.0000E+00  0.0000E+00  0.0000E+00  0.0000E+00  0.0000E+00  0.0000E+00  0.0000E+00  0.0000E+00  0.0000E+00  0.0000E+00  0.0000E+00  0.0000E+00  0.1289E+00  0.2948E-04  0.0000E+00  0.0000E+00  0.0000E+00  0.0000E+00  0.0000E+00  0.0000E+00  0.0000E+00  0.0000E+00  0.0000E+00  0.0000E+00  0.0000E+00  0.0000E+00  0.0000E+00  0.0000E+00
REACH    1        0     9  0.5790E+01  0.8797E-02  0.8717E-02  0.7782E-04  0.0000E+00  0.6127E+03  0.1048E+01  0.3045E+02  0.2914E-01  0.2874E-01  0.6338E-02  0.6220E-02  0.1298E+01  0.1291E+01  0.7886E-02  0.2852E-01  0.4879E-05  0.1145E-03  0.7052E-03  0.2090E-02  0.2432E-02  0.0000E+00  0.2784E+05  0.2661E+05  0.1609E+03  0.1105E+03  0.0000E+00  0.0000E+00  0.0000E+00  0.0000E+00  0.0000E+00  0.0000E+00  0.0000E+00  0.0000E+00  0.0000E+00  0.0000E+00  0.0000E+00  0.0000E+00  0.0000E+00  0.0000E+00  0.0000E+00  0.0000E+00  0.0000E+00  0.1349E+01  0.8310E-02  0.0000E+00  0.0000E+00  0.0000E+00  0.0000E+00  0.0000E+00  0.0000E+00  0.0000E+00  0.0000E+00  0.0000E+00  0.0000E+00  0.0000E+00  0.0000E+00  0.0000E+00  0.0000E+00
REACH    2        0     9  0.2233E+01  0.3192E-02  0.3166E-02  0.2551E-04  0.0000E+00  0.3526E+03  0.3444E+03  0.1008E+05  0.1726E-01  0.1715E-01  0.3739E-02  0.3697E-02  0.5299E+00  0.5276E+00  0.0000E+00  0.3233E-02  0.0000E+00  0.4587E-05  0.1386E-03  0.4346E-03  0.6522E-02  0.4491E-03  0.1673E+05  0.1616E+05  0.8294E+02  0.4030E+02  0.0000E+00  0.0000E+00  0.0000E+00  0.0000E+00  0.0000E+00  0.0000E+00  0.0000E+00  0.0000E+00  0.0000E+00  0.0000E+00  0.0000E+00  0.0000E+00  0.0000E+00  0.0000E+00  0.0000E+00  0.0000E+00  0.0000E+00  0.5480E+00  0.4131E-02  0.0000E+00  0.0000E+00  0.0000E+00  0.0000E+00  0.0000E+00  0.0000E+00  0.0000E+00  0.0000E+00  0.0000E+00  0.0000E+00  0.0000E+00  0.0000E+00  0.0000E+00  0.0000E+00
REACH    3        0     9  0.1834E+01  0.2932E-02  0.2912E-02  0.1630E-04  0.0000E+00  0.1779E+03  0.1744E+03  0.6440E+04  0.6772E-02  0.6764E-02  0.1509E-02  0.1501E-02  0.4294E+00  0.4274E+00  0.0000E+00  0.4653E-02  0.0000E+00  0.2921E-06  0.7062E-04  0.2160E-03  0.3024E-02  0.5508E-03  0.7964E+04  0.7739E+04  0.8175E+02  0.4200E+02  0.0000E+00  0.0000E+00  0.0000E+00  0.0000E+00  0.0000E+00  0.0000E+00  0.0000E+00  0.0000E+00  0.0000E+00  0.0000E+00  0.0000E+00  0.0000E+00  0.0000E+00  0.0000E+00  0.0000E+00  0.0000E+00  0.0000E+00  0.4388E+00  0.1717E-02  0.0000E+00  0.0000E+00  0.0000E+00  0.0000E+00  0.0000E+00  0.0000E+00  0.0000E+00  0.0000E+00  0.0000E+00  0.0000E+00  0.0000E+00  0.0000E+00  0.0000E+00  0.0000E+00
REACH    1        0    10  0.5790E+01  0.2065E-01  0.2059E-01  0.6453E-04  0.0000E+00  0.2843E+04  0.4532E+01  0.5275E+02  0.9736E+00  0.9672E+00  0.2172E+00  0.2153E+00  0.2211E+01  0.2202E+01  0.8190E-02  0.2729E-01  0.8731E-06  0.7254E-04  0.5587E-02  0.8477E-02  0.1923E-01  0.8012E-02  0.1508E+06  0.1469E+06  0.3302E+03  0.2016E+03  0.0000E+00  0.0000E+00  0.0000E+00  0.0000E+00  0.0000E+00  0.0000E+00  0.0000E+00  0.0000E+00  0.0000E+00  0.0000E+00  0.0000E+00  0.0000E+00  0.0000E+00  0.0000E+00  0.0000E+00  0.0000E+00  0.0000E+00  0.3197E+01  0.2238E+00  0.0000E+00  0.0000E+00  0.0000E+00  0.0000E+00  0.0000E+00  0.0000E+00  0.0000E+00  0.0000E+00  0.0000E+00  0.0000E+00  0.0000E+00  0.0000E+00  0.0000E+00  0.0000E+00
REACH    2        0    10  0.2233E+01  0.7705E-02  0.7685E-02  0.2108E-04  0.0000E+00  0.1544E+04  0.1522E+04  0.1929E+05  0.6414E+00  0.6381E+00  0.1416E+00  0.1406E+00  0.8910E+00  0.8880E+00  0.0000E+00  0.4613E-02  0.0000E+00  0.8731E-06  0.2473E-02  0.3481E-02  0.2428E-01  0.9268E-02  0.8797E+05  0.8632E+05  0.1741E+03  0.7193E+02  0.0000E+00  0.0000E+00  0.0000E+00  0.0000E+00  0.0000E+00  0.0000E+00  0.0000E+00  0.0000E+00  0.0000E+00  0.0000E+00  0.0000E+00  0.0000E+00  0.0000E+00  0.0000E+00  0.0000E+00  0.0000E+00  0.0000E+00  0.1531E+01  0.1441E+00  0.0000E+00  0.0000E+00  0.0000E+00  0.0000E+00  0.0000E+00  0.0000E+00  0.0000E+00  0.0000E+00  0.0000E+00  0.0000E+00  0.0000E+00  0.0000E+00  0.0000E+00  0.0000E+00
REACH    3        0    10  0.1834E+01  0.6873E-02  0.6863E-02  0.1346E-04  0.0000E+00  0.8377E+03  0.8291E+03  0.1362E+05  0.1210E+00  0.1206E+00  0.2830E-01  0.2818E-01  0.6928E+00  0.6917E+00  0.0000E+00  0.3577E-02  0.0000E+00  0.0000E+00  0.6986E-03  0.1083E-02  0.6341E-02  0.2648E-02  0.4295E+05  0.4236E+05  0.1818E+03  0.8456E+02  0.0000E+00  0.0000E+00  0.0000E+00  0.0000E+00  0.0000E+00  0.0000E+00  0.0000E+00  0.0000E+00  0.0000E+00  0.0000E+00  0.0000E+00  0.0000E+00  0.0000E+00  0.0000E+00  0.0000E+00  0.0000E+00  0.0000E+00  0.8159E+00  0.2927E-01  0.0000E+00  0.0000E+00  0.0000E+00  0.0000E+00  0.0000E+00  0.0000E+00  0.0000E+00  0.0000E+00  0.0000E+00  0.0000E+00  0.0000E+00  0.0000E+00  0.0000E+00  0.0000E+00
REACH    1        0    11  0.5790E+01  0.4067E-01  0.4060E-01  0.4770E-04  0.0000E+00  0.9495E+04  0.1960E+02  0.6439E+02  0.1159E+02  0.1155E+02  0.2625E+01  0.2614E+01  0.2041E+02  0.2036E+02  0.1363E-01  0.4571E-01  0.1906E-05  0.1002E-03  0.3759E-01  0.4580E-01  0.3290E+00  0.2568E+00  0.5133E+06  0.5071E+06  0.4913E+03  0.2686E+03  0.0000E+00  0.0000E+00  0.0000E+00  0.0000E+00  0.0000E+00  0.0000E+00  0.0000E+00  0.0000E+00  0.0000E+00  0.0000E+00  0.0000E+00  0.0000E+00  0.0000E+00  0.0000E+00  0.0000E+00  0.0000E+00  0.0000E+00  0.3196E+02  0.2660E+01  0.0000E+00  0.0000E+00  0.0000E+00  0.0000E+00  0.0000E+00  0.0000E+00  0.0000E+00  0.0000E+00  0.0000E+00  0.0000E+00  0.0000E+00  0.0000E+00  0.0000E+00  0.0000E+00
REACH    2        0    11  0.2233E+01  0.1542E-01  0.1541E-01  0.1560E-04  0.0000E+00  0.4180E+04  0.4153E+04  0.1562E+05  0.7905E+01  0.7891E+01  0.1759E+01  0.1755E+01  0.6550E+01  0.6541E+01  0.0000E+00  0.7903E-02  0.0000E+00  0.1506E-05  0.2049E-01  0.2404E-01  0.2684E+00  0.2080E+00  0.2519E+06  0.2499E+06  0.3193E+03  0.8805E+02  0.0000E+00  0.0000E+00  0.0000E+00  0.0000E+00  0.0000E+00  0.0000E+00  0.0000E+00  0.0000E+00  0.0000E+00  0.0000E+00  0.0000E+00  0.0000E+00  0.0000E+00  0.0000E+00  0.0000E+00  0.0000E+00  0.0000E+00  0.1444E+02  0.1779E+01  0.0000E+00  0.0000E+00  0.0000E+00  0.0000E+00  0.0000E+00  0.0000E+00  0.0000E+00  0.0000E+00  0.0000E+00  0.0000E+00  0.0000E+00  0.0000E+00  0.0000E+00  0.0000E+00
REACH    3        0    11  0.1834E+01  0.1336E-01  0.1334E-01  0.9986E-05  0.0000E+00  0.3020E+04  0.3005E+04  0.1213E+05  0.1065E+01  0.1063E+01  0.2678E+00  0.2671E+00  0.7048E+01  0.7037E+01  0.0000E+00  0.5726E-02  0.0000E+00  0.3999E-06  0.4279E-02  0.4978E-02  0.3923E-01  0.3205E-01  0.1566E+06  0.1556E+06  0.3151E+03  0.1068E+03  0.0000E+00  0.0000E+00  0.0000E+00  0.0000E+00  0.0000E+00  0.0000E+00  0.0000E+00  0.0000E+00  0.0000E+00  0.0000E+00  0.0000E+00  0.0000E+00  0.0000E+00  0.0000E+00  0.0000E+00  0.0000E+00  0.0000E+00  0.8105E+01  0.2721E+00  0.0000E+00  0.0000E+00  0.0000E+00  0.0000E+00  0.0000E+00  0.0000E+00  0.0000E+00  0.0000E+00  0.0000E+00  0.0000E+00  0.0000E+00  0.0000E+00  0.0000E+00  0.0000E+00
REACH    1        0    12  0.5790E+01  0.2535E+00  0.2534E+00  0.2921E-04  0.0000E+00  0.5471E+05  0.1636E+03  0.2080E+03  0.6436E+02  0.6427E+02  0.1432E+02  0.1429E+02  0.1331E+03  0.1331E+03  0.4081E-01  0.1201E+00  0.0000E+00  0.0000E+00  0.1948E+00  0.2257E+00  0.1216E+01  0.1046E+01  0.2401E+07  0.2375E+07  0.2387E+04  0.5257E+03  0.0000E+00  0.0000E+00  0.0000E+00  0.0000E+00  0.0000E+00  0.0000E+00  0.0000E+00  0.0000E+00  0.0000E+00  0.0000E+00  0.0000E+00  0.0000E+00  0.0000E+00  0.0000E+00  0.0000E+00  0.0000E+00  0.0000E+00  0.1975E+03  0.1452E+02  0.0000E+00  0.0000E+00  0.0000E+00  0.0000E+00  0.0000E+00  0.0000E+00  0.0000E+00  0.0000E+00  0.0000E+00  0.0000E+00  0.0000E+00  0.0000E+00  0.0000E+00  0.0000E+00
REACH    2        0    12  0.2233E+01  0.9593E-01  0.9590E-01  0.9705E-05  0.0000E+00  0.2378E+05  0.2364E+05  0.6010E+05  0.4308E+02  0.4304E+02  0.9499E+01  0.9484E+01  0.4411E+02  0.4410E+02  0.0000E+00  0.3011E-01  0.0000E+00  0.0000E+00  0.1084E+00  0.1222E+00  0.8949E+00  0.7839E+00  0.1205E+07  0.1195E+07  0.1974E+04  0.2114E+03  0.0000E+00  0.0000E+00  0.0000E+00  0.0000E+00  0.0000E+00  0.0000E+00  0.0000E+00  0.0000E+00  0.0000E+00  0.0000E+00  0.0000E+00  0.0000E+00  0.0000E+00  0.0000E+00  0.0000E+00  0.0000E+00  0.0000E+00  0.8717E+02  0.9606E+01  0.0000E+00  0.0000E+00  0.0000E+00  0.0000E+00  0.0000E+00  0.0000E+00  0.0000E+00  0.0000E+00  0.0000E+00  0.0000E+00  0.0000E+00  0.0000E+00  0.0000E+00  0.0000E+00
REACH    3        0    12  0.1834E+01  0.8269E-01  0.8268E-01  0.6310E-05  0.0000E+00  0.1750E+05  0.1742E+05  0.5236E+05  0.6394E+01  0.6389E+01  0.1518E+01  0.1517E+01  0.4606E+02  0.4606E+02  0.0000E+00  0.1070E-01  0.0000E+00  0.0000E+00  0.2379E-01  0.2617E-01  0.1415E+00  0.1273E+00  0.7266E+06  0.7221E+06  0.1957E+04  0.2842E+03  0.0000E+00  0.0000E+00  0.0000E+00  0.0000E+00  0.0000E+00  0.0000E+00  0.0000E+00  0.0000E+00  0.0000E+00  0.0000E+00  0.0000E+00  0.0000E+00  0.0000E+00  0.0000E+00  0.0000E+00  0.0000E+00  0.0000E+00  0.5246E+02  0.1543E+01  0.0000E+00  0.0000E+00  0.0000E+00  0.0000E+00  0.0000E+00  0.0000E+00  0.0000E+00  0.0000E+00  0.0000E+00  0.0000E+00  0.0000E+00  0.0000E+00  0.0000E+00  0.0000E+00
REACH    1        0  1983  0.5790E+01  0.1450E+00  0.1450E+00  0.6937E-04  0.0000E+00  0.4520E+06  0.1213E+04  0.1322E+03  0.1782E+05  0.1780E+05  0.3926E+04  0.3919E+04  0.4274E+03  0.4270E+03  0.4954E+01  0.1465E+02  0.2535E-04  0.6217E-02  0.3987E+01  0.8576E+01  0.4239E+03  0.3949E+03  0.2253E+08  0.2236E+08  0.2199E+05  0.1301E+05  0.0000E+00  0.0000E+00  0.0000E+00  0.0000E+00  0.0000E+00  0.0000E+00  0.0000E+00  0.0000E+00  0.0000E+00  0.0000E+00  0.0000E+00  0.0000E+00  0.0000E+00  0.0000E+00  0.0000E+00  0.0000E+00  0.0000E+00  0.1824E+05  0.3928E+04  0.0000E+00  0.0000E+00  0.0000E+00  0.0000E+00  0.0000E+00  0.0000E+00  0.0000E+00  0.0000E+00  0.0000E+00  0.0000E+00  0.0000E+00  0.0000E+00  0.0000E+00  0.0000E+00
REACH    2        0  1983  0.2233E+01  0.5591E-01  0.5589E-01  0.2295E-04  0.0000E+00  0.1732E+06  0.1724E+06  0.2167E+05  0.6877E+04  0.6871E+04  0.1516E+04  0.1514E+04  0.1456E+03  0.1456E+03  0.0000E+00  0.2963E+01  0.0000E+00  0.2422E-04  0.1327E+01  0.2356E+01  0.1836E+03  0.1716E+03  0.9481E+07  0.9424E+07  0.1413E+05  0.5123E+04  0.0000E+00  0.0000E+00  0.0000E+00  0.0000E+00  0.0000E+00  0.0000E+00  0.0000E+00  0.0000E+00  0.0000E+00  0.0000E+00  0.0000E+00  0.0000E+00  0.0000E+00  0.0000E+00  0.0000E+00  0.0000E+00  0.0000E+00  0.7020E+04  0.1516E+04  0.0000E+00  0.0000E+00  0.0000E+00  0.0000E+00  0.0000E+00  0.0000E+00  0.0000E+00  0.0000E+00  0.0000E+00  0.0000E+00  0.0000E+00  0.0000E+00  0.0000E+00  0.0000E+00
[...]
REACH    1        0     5  0.5790E+01  0.3889E-01  0.3881E-01  0.1029E-03  0.0000E+00  0.1013E+04  0.8680E+01  0.8207E+02  0.1595E+02  0.1587E+02  0.3610E+01  0.3585E+01  0.1395E+01  0.1392E+01  0.2650E-01  0.8120E-01  0.0000E+00  0.1048E-03  0.2024E-02  0.6310E-02  0.1606E+00  0.4422E-01  0.3554E+05  0.3459E+05  0.9334E+03  0.8065E+03  0.0000E+00  0.0000E+00  0.0000E+00  0.0000E+00  0.0000E+00  0.0000E+00  0.0000E+00  0.0000E+00  0.0000E+00  0.0000E+00  0.0000E+00  0.0000E+00  0.0000E+00  0.0000E+00  0.0000E+00  0.0000E+00  0.0000E+00  0.1734E+02  0.3592E+01  0.0000E+00  0.0000E+00  0.0000E+00  0.0000E+00  0.0000E+00  0.0000E+00  0.0000E+00  0.0000E+00  0.0000E+00  0.0000E+00  0.0000E+00  0.0000E+00  0.0000E+00  0.0000E+00
REACH    2        0     5  0.2233E+01  0.1568E-01  0.1565E-01  0.3386E-04  0.0000E+00  0.5767E+03  0.5685E+03  0.8179E+04  0.1012E+02  0.1009E+02  0.2291E+01  0.2279E+01  0.6017E+00  0.6008E+00  0.0000E+00  0.2006E-01  0.0000E+00  0.0000E+00  0.4371E-03  0.1330E-02  0.2004E+00  0.8679E-01  0.2054E+05  0.2012E+05  0.4657E+03  0.3314E+03  0.0000E+00  0.0000E+00  0.0000E+00  0.0000E+00  0.0000E+00  0.0000E+00  0.0000E+00  0.0000E+00  0.0000E+00  0.0000E+00  0.0000E+00  0.0000E+00  0.0000E+00  0.0000E+00  0.0000E+00  0.0000E+00  0.0000E+00  0.1071E+02  0.2281E+01  0.0000E+00  0.0000E+00  0.0000E+00  0.0000E+00  0.0000E+00  0.0000E+00  0.0000E+00  0.0000E+00  0.0000E+00  0.0000E+00  0.0000E+00  0.0000E+00  0.0000E+00  0.0000E+00
REACH    3        0     5  0.1834E+01  0.1172E-01  0.1170E-01  0.2163E-04  0.0000E+00  0.2935E+03  0.2898E+03  0.5722E+04  0.4369E+01  0.4356E+01  0.9904E+00  0.9861E+00  0.4267E+00  0.4261E+00  0.0000E+00  0.6434E-02  0.0000E+00  0.0000E+00  0.2008E-03  0.6005E-03  0.8725E-01  0.4329E-01  0.1031E+05  0.1012E+05  0.3524E+03  0.2507E+03  0.0000E+00  0.0000E+00  0.0000E+00  0.0000E+00  0.0000E+00  0.0000E+00  0.0000E+00  0.0000E+00  0.0000E+00  0.0000E+00  0.0000E+00  0.0000E+00  0.0000E+00  0.0000E+00  0.0000E+00  0.0000E+00  0.0000E+00  0.4788E+01  0.9867E+00  0.0000E+00  0.0000E+00  0.0000E+00  0.0000E+00  0.0000E+00  0.0000E+00  0.0000E+00  0.0000E+00  0.0000E+00  0.0000E+00  0.0000E+00  0.0000E+00  0.0000E+00  0.0000E+00
REACH    1        0     6  0.5790E+01  0.1498E-01  0.1489E-01  0.8365E-04  0.0000E+00  0.3886E+03  0.2348E+01  0.5210E+02  0.6480E+01  0.6421E+01  0.1469E+01  0.1451E+01  0.6620E+00  0.6588E+00  0.9052E-02  0.2954E-01  0.2746E-06  0.9183E-04  0.7957E-03  0.2543E-02  0.1922E-01  0.0000E+00  0.1727E+05  0.1645E+05  0.4036E+03  0.3670E+03  0.0000E+00  0.0000E+00  0.0000E+00  0.0000E+00  0.0000E+00  0.0000E+00  0.0000E+00  0.0000E+00  0.0000E+00  0.0000E+00  0.0000E+00  0.0000E+00  0.0000E+00  0.0000E+00  0.0000E+00  0.0000E+00  0.0000E+00  0.7110E+01  0.1454E+01  0.0000E+00  0.0000E+00  0.0000E+00  0.0000E+00  0.0000E+00  0.0000E+00  0.0000E+00  0.0000E+00  0.0000E+00  0.0000E+00  0.0000E+00  0.0000E+00  0.0000E+00  0.0000E+00
REACH    2        0     6  0.2233E+01  0.6125E-02  0.6098E-02  0.2740E-04  0.0000E+00  0.2212E+03  0.2182E+03  0.5926E+04  0.4125E+01  0.4106E+01  0.9345E+00  0.9292E+00  0.2702E+00  0.2692E+00  0.0000E+00  0.4923E-02  0.0000E+00  0.2746E-06  0.1735E-03  0.5185E-03  0.9835E-01  0.0000E+00  0.1014E+05  0.9946E+04  0.1805E+03  0.1568E+03  0.0000E+00  0.0000E+00  0.0000E+00  0.0000E+00  0.0000E+00  0.0000E+00  0.0000E+00  0.0000E+00  0.0000E+00  0.0000E+00  0.0000E+00  0.0000E+00  0.0000E+00  0.0000E+00  0.0000E+00  0.0000E+00  0.0000E+00  0.4380E+01  0.9297E+00  0.0000E+00  0.0000E+00  0.0000E+00  0.0000E+00  0.0000E+00  0.0000E+00  0.0000E+00  0.0000E+00  0.0000E+00  0.0000E+00  0.0000E+00  0.0000E+00  0.0000E+00  0.0000E+00
REACH    3        0     6  0.1834E+01  0.4334E-02  0.4316E-02  0.1751E-04  0.0000E+00  0.1123E+03  0.1110E+03  0.4050E+04  0.1774E+01  0.1767E+01  0.4025E+00  0.4006E+00  0.2139E+00  0.2131E+00  0.0000E+00  0.4129E-02  0.0000E+00  0.0000E+00  0.8118E-04  0.2380E-03  0.4170E-01  0.5243E-02  0.4947E+04  0.4864E+04  0.1292E+03  0.1091E+03  0.0000E+00  0.0000E+00  0.0000E+00  0.0000E+00  0.0000E+00  0.0000E+00  0.0000E+00  0.0000E+00  0.0000E+00  0.0000E+00  0.0000E+00  0.0000E+00  0.0000E+00  0.0000E+00  0.0000E+00  0.0000E+00  0.0000E+00  0.1984E+01  0.4009E+00  0.0000E+00  0.0000E+00  0.0000E+00  0.0000E+00  0.0000E+00  0.0000E+00  0.0000E+00  0.0000E+00  0.0000E+00  0.0000E+00  0.0000E+00  0.0000E+00  0.0000E+00  0.0000E+00
REACH    1        0     7  0.5790E+01  0.2016E-02  0.1902E-02  0.1196E-03  0.0000E+00  0.2217E-05  0.5548E-01  0.7466E+01  0.1520E-02  0.1484E-02  0.3694E-03  0.3509E-03  0.2944E-01  0.2902E-01  0.8043E-02  0.3526E-01  0.1171E-04  0.2166E-03  0.7995E-04  0.4180E-03  0.1625E-05  0.0000E+00  0.1976E-05  0.4857E-04  0.6377E+02  0.5999E+02  0.0000E+00  0.0000E+00  0.0000E+00  0.0000E+00  0.0000E+00  0.0000E+00  0.0000E+00  0.0000E+00  0.0000E+00  0.0000E+00  0.0000E+00  0.0000E+00  0.0000E+00  0.0000E+00  0.0000E+00  0.0000E+00  0.0000E+00  0.6598E-01  0.7688E-03  0.0000E+00  0.0000E+00  0.0000E+00  0.0000E+00  0.0000E+00  0.0000E+00  0.0000E+00  0.0000E+00  0.0000E+00  0.0000E+00  0.0000E+00  0.0000E+00  0.0000E+00  0.0000E+00
REACH    2        0     7  0.2233E+01  0.9011E-03  0.8633E-03  0.3920E-04  0.0000E+00  0.1815E-05  0.1096E-05  0.1467E-03  0.8824E-03  0.8681E-03  0.2084E-03  0.2014E-03  0.9887E-02  0.9802E-02  0.0000E+00  0.1563E-02  0.0000E+00  0.1153E-04  0.1125E-04  0.4907E-04  0.4828E-05  0.0000E+00  0.0000E+00  0.1767E-05  0.2869E+02  0.2722E+02  0.0000E+00  0.0000E+00  0.0000E+00  0.0000E+00  0.0000E+00  0.0000E+00  0.0000E+00  0.0000E+00  0.0000E+00  0.0000E+00  0.0000E+00  0.0000E+00  0.0000E+00  0.0000E+00  0.0000E+00  0.0000E+00  0.0000E+00  0.1224E-01  0.2505E-03  0.0000E+00  0.0000E+00  0.0000E+00  0.0000E+00  0.0000E+00  0.0000E+00  0.0000E+00  0.0000E+00  0.0000E+00  0.0000E+00  0.0000E+00  0.0000E+00  0.0000E+00  0.0000E+00
REACH    3        0     7  0.1834E+01  0.5738E-03  0.5526E-03  0.2505E-04  0.0000E+00  0.9324E-06  0.4702E-06  0.2759E-03  0.3592E-03  0.3528E-03  0.9294E-04  0.8915E-04  0.1004E-01  0.9932E-02  0.0000E+00  0.6480E-02  0.0000E+00  0.1816E-06  0.7989E-05  0.2390E-04  0.1971E-05  0.0000E+00  0.0000E+00  0.2089E-06  0.1827E+02  0.1743E+02  0.0000E+00  0.0000E+00  0.0000E+00  0.0000E+00  0.0000E+00  0.0000E+00  0.0000E+00  0.0000E+00  0.0000E+00  0.0000E+00  0.0000E+00  0.0000E+00  0.0000E+00  0.0000E+00  0.0000E+00  0.0000E+00  0.0000E+00  0.1676E-01  0.1131E-03  0.0000E+00  0.0000E+00  0.0000E+00  0.0000E+00  0.0000E+00  0.0000E+00  0.0000E+00  0.0000E+00  0.0000E+00  0.0000E+00  0.0000E+00  0.0000E+00  0.0000E+00  0.0000E+00
REACH    1        0     8  0.5790E+01  0.2378E-02  0.2286E-02  0.8871E-04  0.0000E+00  0.3235E+02  0.1194E+00  0.8809E+01  0.4984E+00  0.4891E+00  0.1128E+00  0.1102E+00  0.7621E+00  0.7445E+00  0.8717E-02  0.3863E-01  0.2002E-04  0.2438E-03  0.1335E-03  0.8024E-03  0.4266E-03  0.0000E+00  0.5025E+03  0.4643E+03  0.6013E+02  0.4937E+02  0.0000E+00  0.0000E+00  0.0000E+00  0.0000E+00  0.0000E+00  0.0000E+00  0.0000E+00  0.0000E+00  0.0000E+00  0.0000E+00  0.0000E+00  0.0000E+00  0.0000E+00  0.0000E+00  0.0000E+00  0.0000E+00  0.0000E+00  0.1272E+01  0.1110E+00  0.0000E+00  0.0000E+00  0.0000E+00  0.0000E+00  0.0000E+00  0.0000E+00  0.0000E+00  0.0000E+00  0.0000E+00  0.0000E+00  0.0000E+00  0.0000E+00  0.0000E+00  0.0000E+00
REACH    2        0     8  0.2233E+01  0.8860E-03  0.8562E-03  0.2906E-04  0.0000E+00  0.1880E+02  0.1802E+02  0.1568E+04  0.3206E+00  0.3154E+00  0.7268E-01  0.7121E-01  0.2736E+00  0.2680E+00  0.0000E+00  0.1902E-02  0.0000E+00  0.1980E-04  0.2080E-04  0.8948E-04  0.3200E-02  0.0000E+00  0.3169E+03  0.2954E+03  0.2709E+02  0.1920E+02  0.0000E+00  0.0000E+00  0.0000E+00  0.0000E+00  0.0000E+00  0.0000E+00  0.0000E+00  0.0000E+00  0.0000E+00  0.0000E+00  0.0000E+00  0.0000E+00  0.0000E+00  0.0000E+00  0.0000E+00  0.0000E+00  0.0000E+00  0.5853E+00  0.7130E-01  0.0000E+00  0.0000E+00  0.0000E+00  0.0000E+00  0.0000E+00  0.0000E+00  0.0000E+00  0.0000E+00  0.0000E+00  0.0000E+00  0.0000E+00  0.0000E+00  0.0000E+00  0.0000E+00
REACH    3        0     8  0.1834E+01  0.7860E-03  0.7674E-03  0.1857E-04  0.0000E+00  0.9537E+01  0.9263E+01  0.8516E+03  0.1375E+00  0.1361E+00  0.3124E-01  0.3082E-01  0.2638E+00  0.2610E+00  0.0000E+00  0.6815E-02  0.0000E+00  0.2186E-06  0.1208E-04  0.3584E-04  0.1287E-02  0.0000E+00  0.1441E+03  0.1375E+03  0.2425E+02  0.1751E+02  0.0000E+00  0.0000E+00  0.0000E+00  0.0000E+00  0.0000E+00  0.0000E+00  0.0000E+00  0.0000E+00  0.0000E+00  0.0000E+00  0.0000E+00  0.0000E+00  0.0000E+00  0.0000E+00  0.0000E+00  0.0000E+00  0.0000E+00  0.4039E+00  0.3086E-01  0.0000E+00  0.0000E+00  0.0000E+00  0.0000E+00  0.0000E+00  0.0000E+00  0.0000E+00  0.0000E+00  0.0000E+00  0.0000E+00  0.0000E+00  0.0000E+00  0.0000E+00  0.0000E+00
REACH    1        0     9  0.5790E+01  0.3891E-02  0.3813E-02  0.7749E-04  0.0000E+00  0.3063E+01  0.2261E+00  0.1451E+02  0.5369E-01  0.5268E-01  0.1218E-01  0.1189E-01  0.7217E+00  0.7111E+00  0.7602E-02  0.3212E-01  0.1420E-04  0.1570E-03  0.5686E-04  0.2561E-03  0.7920E-05  0.0000E+00  0.1103E+02  0.1009E+02  0.1112E+03  0.1063E+03  0.0000E+00  0.0000E+00  0.0000E+00  0.0000E+00  0.0000E+00  0.0000E+00  0.0000E+00  0.0000E+00  0.0000E+00  0.0000E+00  0.0000E+00  0.0000E+00  0.0000E+00  0.0000E+00  0.0000E+00  0.0000E+00  0.0000E+00  0.7961E+00  0.1214E-01  0.0000E+00  0.0000E+00  0.0000E+00  0.0000E+00  0.0000E+00  0.0000E+00  0.0000E+00  0.0000E+00  0.0000E+00  0.0000E+00  0.0000E+00  0.0000E+00  0.0000E+00  0.0000E+00
REACH    2        0     9  0.2233E+01  0.1342E-02  0.1316E-02  0.2538E-04  0.0000E+00  0.1836E+01  0.1743E+01  0.1957E+03  0.3512E-01  0.3452E-01  0.7978E-02  0.7802E-02  0.2378E+00  0.2346E+00  0.0000E+00  0.2125E-02  0.0000E+00  0.1379E-04  0.8534E-05  0.3425E-04  0.6976E-04  0.0000E+00  0.7345E+01  0.6763E+01  0.4048E+02  0.3596E+02  0.0000E+00  0.0000E+00  0.0000E+00  0.0000E+00  0.0000E+00  0.0000E+00  0.0000E+00  0.0000E+00  0.0000E+00  0.0000E+00  0.0000E+00  0.0000E+00  0.0000E+00  0.0000E+00  0.0000E+00  0.0000E+00  0.0000E+00  0.2712E+00  0.7837E-02  0.0000E+00  0.0000E+00  0.0000E+00  0.0000E+00  0.0000E+00  0.0000E+00  0.0000E+00  0.0000E+00  0.0000E+00  0.0000E+00  0.0000E+00  0.0000E+00  0.0000E+00  0.0000E+00
REACH    3        0     9  0.1834E+01  0.1328E-02  0.1311E-02  0.1622E-04  0.0000E+00  0.8861E+00  0.8564E+00  0.9574E+02  0.1447E-01  0.1432E-01  0.3301E-02  0.3255E-02  0.2550E+00  0.2523E+00  0.0000E+00  0.5477E-02  0.0000E+00  0.4174E-06  0.6412E-05  0.1713E-04  0.2567E-04  0.0000E+00  0.3025E+01  0.2872E+01  0.4011E+02  0.3700E+02  0.0000E+00  0.0000E+00  0.0000E+00  0.0000E+00  0.0000E+00  0.0000E+00  0.0000E+00  0.0000E+00  0.0000E+00  0.0000E+00  0.0000E+00  0.0000E+00  0.0000E+00  0.0000E+00  0.0000E+00  0.0000E+00  0.0000E+00  0.2721E+00  0.3272E-02  0.0000E+00  0.0000E+00  0.0000E+00  0.0000E+00  0.0000E+00  0.0000E+00  0.0000E+00  0.0000E+00  0.0000E+00  0.0000E+00  0.0000E+00  0.0000E+00  0.0000E+00  0.0000E+00
REACH    1        0    10  0.5790E+01  0.2231E-01  0.2225E-01  0.5827E-04  0.0000E+00  0.2038E+04  0.4771E+01  0.5498E+02  0.4799E+02  0.4777E+02  0.1083E+02  0.1075E+02  0.6097E+01  0.6074E+01  0.3978E-01  0.1266E+00  0.2241E-05  0.2207E-03  0.7460E-02  0.2274E-01  0.4109E+00  0.1686E+00  0.8246E+05  0.7984E+05  0.3560E+03  0.2034E+03  0.0000E+00  0.0000E+00  0.0000E+00  0.0000E+00  0.0000E+00  0.0000E+00  0.0000E+00  0.0000E+00  0.0000E+00  0.0000E+00  0.0000E+00  0.0000E+00  0.0000E+00  0.0000E+00  0.0000E+00  0.0000E+00  0.0000E+00  0.5397E+02  0.1078E+02  0.0000E+00  0.0000E+00  0.0000E+00  0.0000E+00  0.0000E+00  0.0000E+00  0.0000E+00  0.0000E+00  0.0000E+00  0.0000E+00  0.0000E+00  0.0000E+00  0.0000E+00  0.0000E+00
REACH    2        0    10  0.2233E+01  0.8059E-02  0.8040E-02  0.1905E-04  0.0000E+00  0.1156E+04  0.1139E+04  0.2364E+05  0.2774E+02  0.2765E+02  0.6272E+01  0.6245E+01  0.2318E+01  0.2310E+01  0.0000E+00  0.2896E-01  0.0000E+00  0.2241E-05  0.1615E-02  0.4872E-02  0.5697E+00  0.2170E+00  0.4909E+05  0.4814E+05  0.2058E+03  0.7020E+02  0.0000E+00  0.0000E+00  0.0000E+00  0.0000E+00  0.0000E+00  0.0000E+00  0.0000E+00  0.0000E+00  0.0000E+00  0.0000E+00  0.0000E+00  0.0000E+00  0.0000E+00  0.0000E+00  0.0000E+00  0.0000E+00  0.0000E+00  0.2999E+02  0.6250E+01  0.0000E+00  0.0000E+00  0.0000E+00  0.0000E+00  0.0000E+00  0.0000E+00  0.0000E+00  0.0000E+00  0.0000E+00  0.0000E+00  0.0000E+00  0.0000E+00  0.0000E+00  0.0000E+00
REACH    3        0    10  0.1834E+01  0.7530E-02  0.7514E-02  0.1221E-04  0.0000E+00  0.5886E+03  0.5820E+03  0.1425E+05  0.1366E+02  0.1363E+02  0.3082E+01  0.3072E+01  0.2003E+01  0.1998E+01  0.0000E+00  0.1081E-01  0.0000E+00  0.0000E+00  0.6931E-03  0.2097E-02  0.2362E+00  0.1132E+00  0.2321E+05  0.2286E+05  0.2128E+03  0.8590E+02  0.0000E+00  0.0000E+00  0.0000E+00  0.0000E+00  0.0000E+00  0.0000E+00  0.0000E+00  0.0000E+00  0.0000E+00  0.0000E+00  0.0000E+00  0.0000E+00  0.0000E+00  0.0000E+00  0.0000E+00  0.0000E+00  0.0000E+00  0.1564E+02  0.3074E+01  0.0000E+00  0.0000E+00  0.0000E+00  0.0000E+00  0.0000E+00  0.0000E+00  0.0000E+00  0.0000E+00  0.0000E+00  0.0000E+00  0.0000E+00  0.0000E+00  0.0000E+00  0.0000E+00
REACH    1        0    11  0.5790E+01  0.1588E-01  0.1584E-01  0.3763E-04  0.0000E+00  0.6414E-04  0.1648E+00  0.5943E+02  0.9051E-02  0.9167E-02  0.1944E-02  0.1964E-02  0.6013E+00  0.6043E+00  0.2879E-03  0.9748E-03  0.0000E+00  0.2403E-05  0.1042E-03  0.3247E-03  0.5112E-04  0.0000E+00  0.1898E-03  0.1494E-02  0.3142E+02  0.3125E+02  0.0000E+00  0.0000E+00  0.0000E+00  0.0000E+00  0.0000E+00  0.0000E+00  0.0000E+00  0.0000E+00  0.0000E+00  0.0000E+00  0.0000E+00  0.0000E+00  0.0000E+00  0.0000E+00  0.0000E+00  0.0000E+00  0.0000E+00  0.6144E+00  0.2289E-02  0.0000E+00  0.0000E+00  0.0000E+00  0.0000E+00  0.0000E+00  0.0000E+00  0.0000E+00  0.0000E+00  0.0000E+00  0.0000E+00  0.0000E+00  0.0000E+00  0.0000E+00  0.0000E+00
REACH    2        0    11  0.2233E+01  0.5257E-02  0.5246E-02  0.1235E-04  0.0000E+00  0.3784E-04  0.3659E-04  0.3851E-01  0.5136E-02  0.5165E-02  0.1106E-02  0.1109E-02  0.2107E+00  0.2118E+00  0.0000E+00  0.2930E-04  0.0000E+00  0.0000E+00  0.1964E-04  0.6456E-04  0.1488E-03  0.0000E+00  0.0000E+00  0.1363E-03  0.1048E+02  0.1035E+02  0.0000E+00  0.0000E+00  0.0000E+00  0.0000E+00  0.0000E+00  0.0000E+00  0.0000E+00  0.0000E+00  0.0000E+00  0.0000E+00  0.0000E+00  0.0000E+00  0.0000E+00  0.0000E+00  0.0000E+00  0.0000E+00  0.0000E+00  0.2170E+00  0.1173E-02  0.0000E+00  0.0000E+00  0.0000E+00  0.0000E+00  0.0000E+00  0.0000E+00  0.0000E+00  0.0000E+00  0.0000E+00  0.0000E+00  0.0000E+00  0.0000E+00  0.0000E+00  0.0000E+00
REACH    3        0    11  0.1834E+01  0.5477E-02  0.5469E-02  0.7896E-05  0.0000E+00  0.1508E-04  0.1476E-04  0.1491E-01  0.1959E-02  0.1966E-02  0.4221E-03  0.4228E-03  0.2029E+00  0.2036E+00  0.0000E+00  0.2586E-03  0.0000E+00  0.0000E+00  0.9580E-05  0.3034E-04  0.6230E-04  0.0000E+00  0.0000E+00  0.5349E-04  0.1092E+02  0.1079E+02  0.0000E+00  0.0000E+00  0.0000E+00  0.0000E+00  0.0000E+00  0.0000E+00  0.0000E+00  0.0000E+00  0.0000E+00  0.0000E+00  0.0000E+00  0.0000E+00  0.0000E+00  0.0000E+00  0.0000E+00  0.0000E+00  0.0000E+00  0.2058E+00  0.4532E-03  0.0000E+00  0.0000E+00  0.0000E+00  0.0000E+00  0.0000E+00  0.0000E+00  0.0000E+00  0.0000E+00  0.0000E+00  0.0000E+00  0.0000E+00  0.0000E+00  0.0000E+00  0.0000E+00
REACH    1        0  1990  0.5790E+01  0.5738E-01  0.5730E-01  0.7757E-04  0.0000E+00  0.5487E+05  0.2417E+03  0.8325E+02  0.8618E+04  0.8604E+04  0.1897E+04  0.1892E+04  0.1604E+03  0.1602E+03  0.3268E+01  0.9905E+01  0.5794E-04  0.7004E-02  0.1049E+01  0.3129E+01  0.1309E+03  0.1053E+03  0.2163E+07  0.2133E+07  0.9761E+04  0.6616E+04  0.0000E+00  0.0000E+00  0.0000E+00  0.0000E+00  0.0000E+00  0.0000E+00  0.0000E+00  0.0000E+00  0.0000E+00  0.0000E+00  0.0000E+00  0.0000E+00  0.0000E+00  0.0000E+00  0.0000E+00  0.0000E+00  0.0000E+00  0.8774E+04  0.1895E+04  0.0000E+00  0.0000E+00  0.0000E+00  0.0000E+00  0.0000E+00  0.0000E+00  0.0000E+00  0.0000E+00  0.0000E+00  0.0000E+00  0.0000E+00  0.0000E+00  0.0000E+00  0.0000E+00
REACH    2        0  1990  0.2233E+01  0.2216E-01  0.2213E-01  0.2552E-04  0.0000E+00  0.2631E+05  0.2611E+05  0.1263E+05  0.3741E+04  0.3736E+04  0.8246E+03  0.8230E+03  0.5441E+02  0.5436E+02  0.0000E+00  0.1874E+01  0.0000E+00  0.5712E-04  0.2135E+00  0.6228E+00  0.7612E+02  0.6270E+02  0.1159E+07  0.1148E+07  0.5733E+04  0.2645E+04  0.0000E+00  0.0000E+00  0.0000E+00  0.0000E+00  0.0000E+00  0.0000E+00  0.0000E+00  0.0000E+00  0.0000E+00  0.0000E+00  0.0000E+00  0.0000E+00  0.0000E+00  0.0000E+00  0.0000E+00  0.0000E+00  0.0000E+00  0.3792E+04  0.8237E+03  0.0000E+00  0.0000E+00  0.0000E+00  0.0000E+00  0.0000E+00  0.0000E+00  0.0000E+00  0.0000E+00  0.0000E+00  0.0000E+00  0.0000E+00  0.0000E+00  0.0000E+00  0.0000E+00
REACH    3        0  1990  0.1834E+01  0.1816E-01  0.1815E-01  0.1634E-04  0.0000E+00  0.1697E+05  0.1687E+05  0.9227E+04  0.2744E+04  0.2741E+04  0.6039E+03  0.6031E+03  0.5475E+02  0.5473E+02  0.0000E+00  0.1394E+01  0.0000E+00  0.8176E-06  0.1125E+00  0.3356E+00  0.4494E+02  0.3908E+02  0.6393E+06  0.6342E+06  0.4957E+04  0.2272E+04  0.0000E+00  0.0000E+00  0.0000E+00  0.0000E+00  0.0000E+00  0.0000E+00  0.0000E+00  0.0000E+00  0.0000E+00  0.0000E+00  0.0000E+00  0.0000E+00  0.0000E+00  0.0000E+00  0.0000E+00  0.0000E+00  0.0000E+00  0.2797E+04  0.6034E+03  0.0000E+00  0.0000E+00  0.0000E+00  0.0000E+00  0.0000E+00  0.0000E+00  0.0000E+00  0.0000E+00  0.0000E+00  0.0000E+00  0.0000E+00  0.0000E+00  0.0000E+00  0.0000E+00
REACH    1        0   9.5  0.5790E+01  0.1386E+00  0.1385E+00  0.7466E-04  0.0000E+00  0.3013E+06  0.1118E+04  0.1276E+03  0.2603E+05  0.2600E+05  0.5726E+04  0.5715E+04  0.4727E+03  0.4718E+03  0.7197E+01  0.2164E+02  0.6057E-04  0.9096E-02  0.4476E+01  0.1117E+02  0.5162E+03  0.4644E+03  0.1338E+08  0.1326E+08  0.2216E+05  0.1286E+05  0.0000E+00  0.0000E+00  0.0000E+00  0.0000E+00  0.0000E+00  0.0000E+00  0.0000E+00  0.0000E+00  0.0000E+00  0.0000E+00  0.0000E+00  0.0000E+00  0.0000E+00  0.0000E+00  0.0000E+00  0.0000E+00  0.0000E+00  0.2650E+05  0.5726E+04  0.0000E+00  0.0000E+00  0.0000E+00  0.0000E+00  0.0000E+00  0.0000E+00  0.0000E+00  0.0000E+00  0.0000E+00  0.0000E+00  0.0000E+00  0.0000E+00  0.0000E+00  0.0000E+00
REACH    2        0   9.5  0.2233E+01  0.5343E-01  0.5341E-01  0.2473E-04  0.0000E+00  0.1214E+06  0.1208E+06  0.1907E+05  0.9744E+04  0.9735E+04  0.2143E+04  0.2140E+04  0.1611E+03  0.1608E+03  0.0000E+00  0.4217E+01  0.0000E+00  0.5198E-04  0.1127E+01  0.2529E+01  0.2286E+03  0.2053E+03  0.6058E+07  0.6018E+07  0.1448E+05  0.5113E+04  0.0000E+00  0.0000E+00  0.0000E+00  0.0000E+00  0.0000E+00  0.0000E+00  0.0000E+00  0.0000E+00  0.0000E+00  0.0000E+00  0.0000E+00  0.0000E+00  0.0000E+00  0.0000E+00  0.0000E+00  0.0000E+00  0.0000E+00  0.9901E+04  0.2143E+04  0.0000E+00  0.0000E+00  0.0000E+00  0.0000E+00  0.0000E+00  0.0000E+00  0.0000E+00  0.0000E+00  0.0000E+00  0.0000E+00  0.0000E+00  0.0000E+00  0.0000E+00  0.0000E+00
REACH    3        0   9.5  0.1834E+01  0.4393E-01  0.4391E-01  0.1593E-04  0.0000E+00  0.9870E+05  0.9833E+05  0.1613E+05  0.8558E+04  0.8553E+04  0.1883E+04  0.1881E+04  0.1606E+03  0.1604E+03  0.0000E+00  0.2980E+01  0.0000E+00  0.8593E-05  0.5315E+00  0.1371E+01  0.1755E+03  0.1636E+03  0.4215E+07  0.4195E+07  0.1273E+05  0.4534E+04  0.0000E+00  0.0000E+00  0.0000E+00  0.0000E+00  0.0000E+00  0.0000E+00  0.0000E+00  0.0000E+00  0.0000E+00  0.0000E+00  0.0000E+00  0.0000E+00  0.0000E+00  0.0000E+00  0.0000E+00  0.0000E+00  0.0000E+00  0.8716E+04  0.1883E+04  0.0000E+00  0.0000E+00  0.0000E+00  0.0000E+00  0.0000E+00  0.0000E+00  0.0000E+00  0.0000E+00  0.0000E+00  0.0000E+00  0.0000E+00  0.0000E+00  0.0000E+00  0.0000E+00
