1
    SWAT Nov 14  VER 2023/Rev 692                                                                        0/ 0/   0      0: 0: 0

    General Input/Output section (file.cio):                                        
    5/19/2025 12:00:00 AM ARCGIS-SWAT interface AV                                  
                                                                                    


       SUB      GIS  MON   AREAkm2  PRECIPmm SNOMELTmm     PETmm      ETmm      SWmm    PERCmm    SURQmm    GW_Qmm    WYLDmm  SYLDt/ha ORGNkg/ha ORGPkg/haNSURQkg/ha SOLPkg/ha SEDPkg/ha LAT Q(mm)LATNO3kg/hGWNO3kg/haCHOLAmic/LCBODU mg/L DOXQ mg/L TNO3kg/ha   QTILEmm TVAPkg/ha
BIGSUB    1        0    4.17227E+01     3.100     0.000    19.115     6.661    61.841     0.000     0.000     0.000     0.027     0.000     0.000     0.000     0.000     0.000     0.000     0.027     0.000     0.000 .00000E+00 0.000E+00 0.000E+00 0.000E+00 0.000E+00 0.000E+00
BIGSUB    2        0    4.22328E+01     3.100     0.000    19.157     6.671    61.838     0.000     0.000     0.000     0.020     0.000     0.000     0.000     0.000     0.000     0.000     0.020     0.000     0.000 .00000E+00 0.000E+00 0.000E+00 0.000E+00 0.000E+00 0.000E+00
BIGSUB    3        0    4.18344E+01     3.100     0.000    19.169     6.672    61.830     0.000     0.000     0.000     0.026     0.000     0.000     0.000     0.000     0.000     0.000     0.026     0.000     0.000 .00000E+00 0.000E+00 0.000E+00 0.000E+00 0.000E+00 0.000E+00
BIGSUB    1        0    5.17227E+01    11.300     0.000    53.156    14.999    57.619     0.000     0.000     0.000     0.460     0.000     0.000     0.000     0.000     0.000     0.000     0.460     0.011     0.000 .00000E+00 0.000E+00 0.000E+00 0.000E+00 0.000E+00 0.000E+00
BIGSUB    2        0    5.22328E+01    11.300     0.000    53.353    15.041    57.695     0.000     0.000     0.000     0.354     0.000     0.000     0.000     0.000     0.000     0.000     0.354     0.009     0.000 .00000E+00 0.000E+00 0.000E+00 0.000E+00 0.000E+00 0.000E+00
BIGSUB    3        0    5.18344E+01    11.300     0.000    53.411    15.041    57.568     0.000     0.000     0.000     0.459     0.000     0.000     0.000     0.000     0.000     0.000     0.459     0.011     0.000 .00000E+00 0.000E+00 0.000E+00 0.000E+00 0.000E+00 0.000E+00
BIGSUB    1        0    6.17227E+01     8.000     0.000    59.726    13.179    52.087     0.000     0.000     0.000     0.417     0.000     0.000     0.000     0.000     0.000     0.000     0.417     0.008     0.000 .00000E+00 0.000E+00 0.000E+00 0.000E+00 0.000E+00 0.000E+00
BIGSUB    2        0    6.22328E+01     8.000     0.000    59.979    13.246    52.177     0.000     0.000     0.000     0.321     0.000     0.000     0.000     0.000     0.000     0.000     0.321     0.006     0.000 .00000E+00 0.000E+00 0.000E+00 0.000E+00 0.000E+00 0.000E+00
BIGSUB    3        0    6.18344E+01     8.000     0.000    60.052    13.197    52.018     0.000     0.000     0.000     0.417     0.000     0.000     0.000     0.000     0.000     0.000     0.417     0.008     0.000 .00000E+00 0.000E+00 0.000E+00 0.000E+00 0.000E+00 0.000E+00
BIGSUB    1        0    7.17227E+01     5.200     0.000    60.300    10.147    47.140     0.000     0.000     0.000     0.000     0.000     0.000     0.000     0.000     0.000     0.000     0.000     0.000     0.000 .00000E+00 0.000E+00 0.000E+00 0.000E+00 0.000E+00 0.000E+00
BIGSUB    2        0    7.22328E+01     5.200     0.000    60.518    10.190    47.187     0.000     0.000     0.000     0.000     0.000     0.000     0.000     0.000     0.000     0.000     0.000     0.000     0.000 .00000E+00 0.000E+00 0.000E+00 0.000E+00 0.000E+00 0.000E+00
BIGSUB    3        0    7.18344E+01     5.200     0.000    60.582    10.154    47.064     0.000     0.000     0.000     0.000     0.000     0.000     0.000     0.000     0.000     0.000     0.000     0.000     0.000 .00000E+00 0.000E+00 0.000E+00 0.000E+00 0.000E+00 0.000E+00
BIGSUB    1        0    8.17227E+01    17.000     0.000    52.299    13.623    49.227     0.000     0.002     0.000     1.247     0.004     0.009     0.001     0.000     0.000     0.001     1.245     0.034     0.000 .00000E+00 0.000E+00 0.000E+00 0.000E+00 0.000E+00 0.000E+00
BIGSUB    2        0    8.22328E+01    17.000     0.000    52.489    13.696    49.492     0.000     0.007     0.000     0.967     0.012     0.030     0.004     0.000     0.000     0.003     0.960     0.026     0.000 .00000E+00 0.000E+00 0.000E+00 0.000E+00 0.000E+00 0.000E+00
BIGSUB    3        0    8.18344E+01    17.000     0.000    52.544    13.638    49.133     0.000     0.004     0.000     1.250     0.007     0.017     0.002     0.000     0.000     0.002     1.246     0.034     0.000 .00000E+00 0.000E+00 0.000E+00 0.000E+00 0.000E+00 0.000E+00
BIGSUB    1        0    9.17227E+01    23.000     0.000    44.899    16.947    53.142     0.000     0.014     0.000     2.171     0.043     0.089     0.011     0.000     0.000     0.008     2.158     0.021     0.000 .00000E+00 0.000E+00 0.000E+00 0.000E+00 0.000E+00 0.000E+00
BIGSUB    2        0    9.22328E+01    23.000     0.000    45.044    17.098    53.710     0.000     0.051     0.000     1.709     0.129     0.281     0.034     0.001     0.000     0.027     1.659     0.015     0.000 .00000E+00 0.000E+00 0.000E+00 0.000E+00 0.000E+00 0.000E+00
BIGSUB    3        0    9.18344E+01    23.000     0.000    45.086    16.958    53.023     0.000     0.028     0.000     2.185     0.077     0.165     0.020     0.000     0.000     0.016     2.157     0.020     0.000 .00000E+00 0.000E+00 0.000E+00 0.000E+00 0.000E+00 0.000E+00
BIGSUB    1        0   10.17227E+01    49.400     0.000    30.701    15.629    78.616     0.000     0.207     0.000     7.496     0.676     1.577     0.193     0.000     0.000     0.151     7.289     0.022     0.000 .00000E+00 0.000E+00 0.000E+00 0.000E+00 0.000E+00 0.000E+00
BIGSUB    2        0   10.22328E+01    49.400     0.000    30.758    15.926    80.109     0.000     0.768     0.000     6.425     2.020     5.003     0.613     0.002     0.000     0.478     5.658     0.025     0.000 .00000E+00 0.000E+00 0.000E+00 0.000E+00 0.000E+00 0.000E+00
BIGSUB    3        0   10.18344E+01    49.400     0.000    30.775    15.616    78.287     0.000     0.431     0.000     7.718     1.220     2.953     0.362     0.001     0.000     0.282     7.287     0.023     0.000 .00000E+00 0.000E+00 0.000E+00 0.000E+00 0.000E+00 0.000E+00
BIGSUB    1        0   11.17227E+01   115.800     0.000    19.407    18.769   119.924    14.445     5.902     0.067    39.716    22.515    36.783     4.505     0.002     0.001     3.517    33.742     0.703     0.000 .00000E+00 0.000E+00 0.000E+00 0.000E+00 0.000E+00 0.000E+00
BIGSUB    2        0   11.22328E+01   115.800     0.000    19.441    18.801   120.004    18.658    12.858     0.124    37.509    36.327    58.539     7.170     0.007     0.003     5.607    24.518     0.530     0.000 .00000E+00 0.000E+00 0.000E+00 0.000E+00 0.000E+00 0.000E+00
BIGSUB    3        0   11.18344E+01   115.800     0.000    19.450    18.807   119.904    12.180     8.644     0.027    41.695    29.240    47.517     5.820     0.004     0.002     4.547    33.020     0.693     0.000 .00000E+00 0.000E+00 0.000E+00 0.000E+00 0.000E+00 0.000E+00
BIGSUB    1        0   12.17227E+01   187.700     0.000    18.251    17.963   120.041    78.784    26.885     9.354    97.235    85.367    92.763    11.362     0.005     0.004     8.936    60.787     0.927     0.015 .00000E+00 0.000E+00 0.000E+00 0.000E+00 0.000E+00 0.000E+00
BIGSUB    2        0   12.22328E+01   187.700     0.000    18.254    17.893   120.111    82.106    43.832    11.449    97.221   102.960    68.759     8.422     0.009     0.005     6.701    41.695     0.678     0.020 .00000E+00 0.000E+00 0.000E+00 0.000E+00 0.000E+00 0.000E+00
BIGSUB    3        0   12.18344E+01   187.700     0.000    18.255    17.945   120.005    74.292    33.865     7.773   100.384    98.436    91.039    11.151     0.007     0.004     8.798    58.559     0.911     0.011 .00000E+00 0.000E+00 0.000E+00 0.000E+00 0.000E+00 0.000E+00
BIGSUB    1        0 1981.17227E+01   420.500     0.000   357.854   127.917   120.041    93.229    33.010     9.421   148.769   108.605   131.221    16.072     0.008     0.005    12.612   106.124     1.727     0.015 .00000E+00 0.000E+00 0.000E+00 0.000E+00 0.000E+00 0.000E+00
BIGSUB    2        0 1981.22328E+01   420.500     0.000   358.993   128.560   120.111   100.764    57.516    11.572   144.527   141.448   132.611    16.243     0.018     0.008    12.815    75.185     1.289     0.020 .00000E+00 0.000E+00 0.000E+00 0.000E+00 0.000E+00 0.000E+00
BIGSUB    3        0 1981.18344E+01   420.500     0.000   359.324   128.029   120.005    86.472    42.972     7.800   154.133   128.981   141.692    17.355     0.012     0.006    13.644   103.171     1.702     0.011 .00000E+00 0.000E+00 0.000E+00 0.000E+00 0.000E+00 0.000E+00
BIGSUB    1        0    1.17227E+01   205.900     0.000    13.359    13.359   120.060    91.919    27.221    42.498   143.628    85.620    45.078     5.521     0.001     0.002     4.388    73.055     0.594     0.083 .00000E+00 0.000E+00 0.000E+00 0.000E+00 0.000E+00 0.000E+00
BIGSUB    2        0    1.22328E+01   205.900     0.000    13.364    13.364   120.111    96.177    45.914    45.560   142.565   106.439    35.091     4.298     0.002     0.003     3.418    50.164     0.456     0.096 .00000E+00 0.000E+00 0.000E+00 0.000E+00 0.000E+00 0.000E+00
BIGSUB    3        0    1.18344E+01   205.900     0.000    13.366    13.366   120.025    86.911    34.826    39.496   145.536    99.885    44.478     5.448     0.001     0.002     4.333    70.419     0.595     0.074 .00000E+00 0.000E+00 0.000E+00 0.000E+00 0.000E+00 0.000E+00
BIGSUB    1        0    2.17227E+01   310.000     0.000    22.544    22.544   120.028   120.181    71.168    69.384   241.286   312.117    32.408     3.969     0.001     0.003     3.238    99.141     0.396     0.138 .00000E+00 0.000E+00 0.000E+00 0.000E+00 0.000E+00 0.000E+00
BIGSUB    2        0    2.22328E+01   310.000     0.000    22.573    22.572   120.052   120.970   104.164    72.116   242.312   311.141    28.671     3.512     0.002     0.004     2.816    64.352     0.301     0.147 .00000E+00 0.000E+00 0.000E+00 0.000E+00 0.000E+00 0.000E+00
BIGSUB    3        0    2.18344E+01   310.000     0.000    22.581    22.581   120.012   111.638    84.545    64.986   245.071   335.442    31.060     3.804     0.001     0.003     3.099    94.051     0.397     0.128 .00000E+00 0.000E+00 0.000E+00 0.000E+00 0.000E+00 0.000E+00
BIGSUB    1        0    3.17227E+01   142.100     0.000    26.536    26.026   118.262    54.208    18.458    88.740   156.833    70.378     0.062     0.008     0.000     0.000     0.022    47.050     0.117     0.117 .00000E+00 0.000E+00 0.000E+00 0.000E+00 0.000E+00 0.000E+00
BIGSUB    2        0    3.22328E+01   142.100     0.000    26.641    26.124   118.257    56.142    31.029    91.019   156.673    87.157     0.918     0.112     0.001     0.000     0.100    31.940     0.098     0.120 .00000E+00 0.000E+00 0.000E+00 0.000E+00 0.000E+00 0.000E+00
BIGSUB    3        0    3.18344E+01   142.100     0.000    26.671    26.152   118.254    50.779    23.579    82.920   154.082    81.962     0.024     0.003     0.001     0.000     0.017    45.167     0.121     0.110 .00000E+00 0.000E+00 0.000E+00 0.000E+00 0.000E+00 0.000E+00
BIGSUB    1        0    4.17227E+01    72.500     0.000    32.404    27.572   117.105    20.517     5.939    69.997    99.100    17.522     0.018     0.002     0.000     0.000     0.004    20.385     0.040     0.050 .00000E+00 0.000E+00 0.000E+00 0.000E+00 0.000E+00 0.000E+00
BIGSUB    2        0    4.22328E+01    72.500     0.000    32.522    27.664   116.765    21.368    11.714    71.862   100.235    27.336     0.195     0.024     0.001     0.000     0.021    13.784     0.033     0.052 .00000E+00 0.000E+00 0.000E+00 0.000E+00 0.000E+00 0.000E+00
BIGSUB    3        0    4.18344E+01    72.500     0.000    32.556    27.670   116.928    19.060     8.292    65.421    95.848    22.507     0.007     0.001     0.000     0.000     0.003    19.538     0.041     0.048 .00000E+00 0.000E+00 0.000E+00 0.000E+00 0.000E+00 0.000E+00
BIGSUB    1        0    5.17227E+01    16.800     0.000    52.498    28.467   103.883     0.000     0.118    42.406    46.831     0.494     0.000     0.000     0.000     0.000     0.000     1.686     0.000     0.014 .00000E+00 0.000E+00 0.000E+00 0.000E+00 0.000E+00 0.000E+00
BIGSUB    2        0    5.22328E+01    16.800     0.000    52.716    28.513   103.589     0.000     0.412    43.661    47.991     1.427     0.000     0.000     0.000     0.000     0.000     1.208     0.000     0.014 .00000E+00 0.000E+00 0.000E+00 0.000E+00 0.000E+00 0.000E+00
BIGSUB    3        0    5.18344E+01    16.800     0.000    52.780    28.442   103.633     0.000     0.235    39.602    43.934     0.880     0.000     0.000     0.000     0.000     0.000     1.648     0.000     0.013 .00000E+00 0.000E+00 0.000E+00 0.000E+00 0.000E+00 0.000E+00
BIGSUB    1        0    6.17227E+01     7.700     0.000    58.457    19.451    91.941     0.000     0.000    18.851    21.151     0.000     0.000     0.000     0.000     0.000     0.000     0.244     0.000     0.002 .00000E+00 0.000E+00 0.000E+00 0.000E+00 0.000E+00 0.000E+00
BIGSUB    2        0    6.22328E+01     7.700     0.000    58.687    19.475    91.667     0.000     0.000    19.444    21.756     0.000     0.000     0.000     0.000     0.000     0.000     0.188     0.000     0.002 .00000E+00 0.000E+00 0.000E+00 0.000E+00 0.000E+00 0.000E+00
BIGSUB    3        0    6.18344E+01     7.700     0.000    58.754    19.437    91.705     0.000     0.000    17.586    19.750     0.000     0.000     0.000     0.000     0.000     0.000     0.243     0.000     0.002 .00000E+00 0.000E+00 0.000E+00 0.000E+00 0.000E+00 0.000E+00
BIGSUB    1        0    7.17227E+01     6.700     0.000    61.193    15.785    82.857     0.000     0.000     5.112     6.750     0.000     0.000     0.000     0.000     0.000     0.000     0.001     0.000     0.000 .00000E+00 0.000E+00 0.000E+00 0.000E+00 0.000E+00 0.000E+00
BIGSUB    2        0    7.22328E+01     6.700     0.000    61.413    15.308    83.059     0.000     0.000     5.922     7.615     0.000     0.000     0.000     0.000     0.000     0.000     0.001     0.000     0.000 .00000E+00 0.000E+00 0.000E+00 0.000E+00 0.000E+00 0.000E+00
BIGSUB    3        0    7.18344E+01     6.700     0.000    61.478    15.645    82.760     0.000     0.000     5.027     6.558     0.000     0.000     0.000     0.000     0.000     0.000     0.001     0.000     0.000 .00000E+00 0.000E+00 0.000E+00 0.000E+00 0.000E+00 0.000E+00
BIGSUB    1        0    8.17227E+01    12.300     0.000    42.110    15.092    79.481     0.000     0.000     0.658     2.421     0.000     0.000     0.000     0.000     0.000     0.000     0.535     0.001     0.000 .00000E+00 0.000E+00 0.000E+00 0.000E+00 0.000E+00 0.000E+00
BIGSUB    2        0    8.22328E+01    12.300     0.000    42.278    14.445    80.475     0.000     0.000     0.459     2.131     0.000     0.000     0.000     0.000     0.000     0.000     0.403     0.001     0.000 .00000E+00 0.000E+00 0.000E+00 0.000E+00 0.000E+00 0.000E+00
BIGSUB    3        0    8.18344E+01    12.300     0.000    42.327    14.912    79.570     0.000     0.000     0.307     1.985     0.000     0.000     0.000     0.000     0.000     0.000     0.531     0.001     0.000 .00000E+00 0.000E+00 0.000E+00 0.000E+00 0.000E+00 0.000E+00
BIGSUB    1        0    9.17227E+01    21.900     0.000    41.236    17.191    81.997     0.000     0.109     0.006     2.722     0.335     0.000     0.000     0.000     0.000     0.000     1.722     0.002     0.000 .00000E+00 0.000E+00 0.000E+00 0.000E+00 0.000E+00 0.000E+00
BIGSUB    2        0    9.22328E+01    21.900     0.000    41.373    16.750    83.689     0.000     0.391     0.011     2.601     0.980     0.000     0.000     0.001     0.000     0.000     1.284     0.001     0.000 .00000E+00 0.000E+00 0.000E+00 0.000E+00 0.000E+00 0.000E+00
BIGSUB    3        0    9.18344E+01    21.900     0.000    41.414    17.058    82.128     0.000     0.224     0.002     2.757     0.598     0.000     0.000     0.000     0.000     0.000     1.705     0.002     0.000 .00000E+00 0.000E+00 0.000E+00 0.000E+00 0.000E+00 0.000E+00
BIGSUB    1        0   10.17227E+01    74.000     0.000    24.610    19.469   118.555     1.181     1.597     0.022    16.700     7.174     0.003     0.000     0.000     0.000     0.001    14.402     0.023     0.000 .00000E+00 0.000E+00 0.000E+00 0.000E+00 0.000E+00 0.000E+00
BIGSUB    2        0   10.22328E+01    74.000     0.000    24.693    19.591   119.152     3.235     4.436     0.040    15.775    16.056     0.032     0.004     0.001     0.000     0.004    10.597     0.019     0.000 .00000E+00 0.000E+00 0.000E+00 0.000E+00 0.000E+00 0.000E+00
BIGSUB    3        0   10.18344E+01    74.000     0.000    24.717    19.464   118.543     0.478     2.722     0.008    17.491    11.003     0.001     0.000     0.000     0.000     0.001    14.128     0.023     0.000 .00000E+00 0.000E+00 0.000E+00 0.000E+00 0.000E+00 0.000E+00
BIGSUB    1        0   11.17227E+01   115.800     0.000    17.490    17.439   119.995    46.906    10.483     6.550    57.539    48.232     0.035     0.004     0.000     0.000     0.009    39.922     0.172     0.001 .00000E+00 0.000E+00 0.000E+00 0.000E+00 0.000E+00 0.000E+00
BIGSUB    2        0   11.22328E+01   115.800     0.000    17.527    17.437   120.006    50.541    19.052     7.889    55.836    63.202     0.413     0.051     0.001     0.000     0.045    28.274     0.139     0.002 .00000E+00 0.000E+00 0.000E+00 0.000E+00 0.000E+00 0.000E+00
BIGSUB    3        0   11.18344E+01   115.800     0.000    17.537    17.481   119.993    44.508    13.979     5.893    59.190    57.506     0.014     0.002     0.001     0.000     0.007    38.774     0.175     0.001 .00000E+00 0.000E+00 0.000E+00 0.000E+00 0.000E+00 0.000E+00
BIGSUB    1        0   12.17227E+01    77.200     0.000    17.266    16.456   119.570    28.886     7.567    21.394    54.934    29.810     0.023     0.003     0.000     0.000     0.005    25.176     0.089     0.006 .00000E+00 0.000E+00 0.000E+00 0.000E+00 0.000E+00 0.000E+00
BIGSUB    2        0   12.22328E+01    77.200     0.000    17.270    16.411   119.659    30.625    13.225    23.734    55.482    39.029     0.227     0.028     0.001     0.000     0.025    17.662     0.072     0.007 .00000E+00 0.000E+00 0.000E+00 0.000E+00 0.000E+00 0.000E+00
BIGSUB    3        0   12.18344E+01    77.200     0.000    17.271    16.449   119.575    27.345     9.877    20.112    55.148    35.521     0.009     0.001     0.000     0.000     0.003    24.413     0.091     0.005 .00000E+00 0.000E+00 0.000E+00 0.000E+00 0.000E+00 0.000E+00
BIGSUB    1        0 1982.17227E+01  1062.900     0.000   409.703   238.850   119.570   363.798   142.662   365.619   849.896   571.683    77.628     9.508     0.004     0.006     7.667   323.319     1.434     0.412 .00000E+00 0.000E+00 0.000E+00 0.000E+00 0.000E+00 0.000E+00
BIGSUB    2        0 1982.22328E+01  1062.900     0.000   411.059   237.656   119.659   379.057   230.336   381.716   850.973   652.767    65.549     8.028     0.008     0.008     6.428   219.856     1.121     0.442 .00000E+00 0.000E+00 0.000E+00 0.000E+00 0.000E+00 0.000E+00
BIGSUB    3        0 1982.18344E+01  1062.900     0.000   411.453   238.657   119.575   340.718   178.279   341.359   847.349   645.304    75.594     9.259     0.006     0.005     7.463   310.620     1.447     0.382 .00000E+00 0.000E+00 0.000E+00 0.000E+00 0.000E+00 0.000E+00
BIGSUB    1        0    1.17227E+01   152.700     0.000    17.032    17.032   120.048    62.010    22.595    30.784   103.130    70.855    18.855     2.309     0.000     0.001     1.820    48.718     0.145     0.010 .00000E+00 0.000E+00 0.000E+00 0.000E+00 0.000E+00 0.000E+00
BIGSUB    2        0    1.22328E+01   152.700     0.000    17.055    17.055   120.089    64.720    35.819    33.051   103.349    88.188    19.820     2.427     0.001     0.001     1.918    33.365     0.116     0.012 .00000E+00 0.000E+00 0.000E+00 0.000E+00 0.000E+00 0.000E+00
BIGSUB    3        0    1.18344E+01   152.700     0.000    17.062    17.062   120.020    58.485    27.994    29.054   104.933    82.709    20.419     2.500     0.001     0.001     1.972    46.914     0.148     0.010 .00000E+00 0.000E+00 0.000E+00 0.000E+00 0.000E+00 0.000E+00
BIGSUB    1        0    2.17227E+01   196.000     0.000    24.660    23.975   120.013    55.115    71.010    39.363   158.066   343.634    11.254     1.378     0.001     0.002     1.116    46.429     0.103     0.015 .00000E+00 0.000E+00 0.000E+00 0.000E+00 0.000E+00 0.000E+00
BIGSUB    2        0    2.22328E+01   196.000     0.000    24.721    24.035   120.024    55.284    87.031    41.139   159.474   285.756    10.167     1.245     0.002     0.002     1.011    29.962     0.078     0.016 .00000E+00 0.000E+00 0.000E+00 0.000E+00 0.000E+00 0.000E+00
BIGSUB    3        0    2.18344E+01   196.000     0.000    24.739    24.052   120.005    50.911    77.534    36.983   159.659   348.147    10.508     1.287     0.002     0.001     1.046    43.953     0.103     0.014 .00000E+00 0.000E+00 0.000E+00 0.000E+00 0.000E+00 0.000E+00
BIGSUB    1        0    3.17227E+01   255.900     0.000    36.016    35.885   120.102    90.081    54.867    56.993   184.860   205.437     0.201     0.025     0.001     0.001     0.031    71.156     0.118     0.022 .00000E+00 0.000E+00 0.000E+00 0.000E+00 0.000E+00 0.000E+00
BIGSUB    2        0    3.22328E+01   255.900     0.000    36.102    35.970   120.189    90.652    79.872    58.146   186.604   214.920     0.452     0.055     0.002     0.001     0.052    46.666     0.096     0.023 .00000E+00 0.000E+00 0.000E+00 0.000E+00 0.000E+00 0.000E+00
BIGSUB    3        0    3.18344E+01   255.900     0.000    36.128    35.995   120.042    83.516    65.372    53.076   187.839   224.658     0.077     0.009     0.001     0.000     0.019    67.666     0.121     0.021 .00000E+00 0.000E+00 0.000E+00 0.000E+00 0.000E+00 0.000E+00
BIGSUB    1        0    4.17227E+01   102.500     0.000    33.041    32.153   117.524    33.889     9.582    62.717   109.304    37.308     0.058     0.007     0.000     0.000     0.006    34.778     0.047     0.020 .00000E+00 0.000E+00 0.000E+00 0.000E+00 0.000E+00 0.000E+00
BIGSUB    2        0    4.22328E+01   102.500     0.000    33.173    32.276   117.618    35.601    17.245    63.833   107.036    52.184     0.127     0.016     0.001     0.000     0.012    23.662     0.040     0.021 .00000E+00 0.000E+00 0.000E+00 0.000E+00 0.000E+00 0.000E+00
BIGSUB    3        0    4.18344E+01   102.500     0.000    33.212    32.303   117.494    31.763    12.385    58.338   106.196    45.685     0.023     0.003     0.000     0.000     0.003    33.396     0.049     0.019 .00000E+00 0.000E+00 0.000E+00 0.000E+00 0.000E+00 0.000E+00
BIGSUB    1        0    5.17227E+01    19.800     0.000    45.560    30.963   105.019     0.000     0.063    45.797    49.645     0.302     0.000     0.000     0.000     0.000     0.000     1.493     0.000     0.008 .00000E+00 0.000E+00 0.000E+00 0.000E+00 0.000E+00 0.000E+00
BIGSUB    2        0    5.22328E+01    19.800     0.000    45.768    31.134   105.104     0.000     0.223    46.822    50.520     0.867     0.000     0.000     0.000     0.000     0.000     1.115     0.000     0.008 .00000E+00 0.000E+00 0.000E+00 0.000E+00 0.000E+00 0.000E+00
BIGSUB    3        0    5.18344E+01    19.800     0.000    45.829    30.993   104.905     0.000     0.128    42.639    46.383     0.537     0.000     0.000     0.000     0.000     0.000     1.478     0.000     0.007 .00000E+00 0.000E+00 0.000E+00 0.000E+00 0.000E+00 0.000E+00
BIGSUB    1        0    6.17227E+01    12.300     0.000    48.996    21.919    94.975     0.000     0.004    21.923    24.212     0.020     0.000     0.000     0.000     0.000     0.000     0.419     0.000     0.001 .00000E+00 0.000E+00 0.000E+00 0.000E+00 0.000E+00 0.000E+00
BIGSUB    2        0    6.22328E+01    12.300     0.000    49.226    21.528    95.545     0.000     0.015    22.448    24.699     0.057     0.000     0.000     0.000     0.000     0.000     0.316     0.000     0.002 .00000E+00 0.000E+00 0.000E+00 0.000E+00 0.000E+00 0.000E+00
BIGSUB    3        0    6.18344E+01    12.300     0.000    49.293    21.797    94.982     0.000     0.008    20.414    22.578     0.036     0.000     0.000     0.000     0.000     0.000     0.415     0.000     0.001 .00000E+00 0.000E+00 0.000E+00 0.000E+00 0.000E+00 0.000E+00
BIGSUB    1        0    7.17227E+01    11.000     0.000    49.647    19.212    86.522     0.000     0.000     7.739     9.497     0.000     0.000     0.000     0.000     0.000     0.000     0.247     0.000     0.000 .00000E+00 0.000E+00 0.000E+00 0.000E+00 0.000E+00 0.000E+00
BIGSUB    2        0    7.22328E+01    11.000     0.000    49.851    18.852    87.513     0.000     0.000     7.966     9.705     0.000     0.000     0.000     0.000     0.000     0.000     0.185     0.000     0.000 .00000E+00 0.000E+00 0.000E+00 0.000E+00 0.000E+00 0.000E+00
BIGSUB    3        0    7.18344E+01    11.000     0.000    49.911    19.102    86.643     0.000     0.000     6.878     8.531     0.000     0.000     0.000     0.000     0.000     0.000     0.244     0.000     0.000 .00000E+00 0.000E+00 0.000E+00 0.000E+00 0.000E+00 0.000E+00
BIGSUB    1        0    8.17227E+01    12.800     0.000    45.485    16.716    82.105     0.000     0.000     0.676     2.290     0.000     0.000     0.000     0.000     0.000     0.000     0.472     0.001     0.000 .00000E+00 0.000E+00 0.000E+00 0.000E+00 0.000E+00 0.000E+00
BIGSUB    2        0    8.22328E+01    12.800     0.000    45.668    16.582    83.349     0.000     0.000     0.843     2.377     0.000     0.000     0.000     0.000     0.000     0.000     0.360     0.001     0.000 .00000E+00 0.000E+00 0.000E+00 0.000E+00 0.000E+00 0.000E+00
BIGSUB    3        0    8.18344E+01    12.800     0.000    45.722    16.673    82.271     0.000     0.000     0.536     2.070     0.000     0.000     0.000     0.000     0.000     0.000     0.470     0.001     0.000 .00000E+00 0.000E+00 0.000E+00 0.000E+00 0.000E+00 0.000E+00
BIGSUB    1        0    9.17227E+01    30.900     0.000    38.532    18.725    90.618     0.000     0.137     0.022     4.092     0.545     0.000     0.000     0.000     0.000     0.000     3.107     0.002     0.000 .00000E+00 0.000E+00 0.000E+00 0.000E+00 0.000E+00 0.000E+00
BIGSUB    2        0    9.22328E+01    30.900     0.000    38.675    18.796    92.318     0.000     0.489     0.040     3.706     1.579     0.000     0.000     0.001     0.000     0.000     2.327     0.001     0.000 .00000E+00 0.000E+00 0.000E+00 0.000E+00 0.000E+00 0.000E+00
BIGSUB    3        0    9.18344E+01    30.900     0.000    38.716    18.704    90.688     0.000     0.279     0.010     4.143     0.970     0.000     0.000     0.001     0.000     0.000     3.083     0.002     0.000 .00000E+00 0.000E+00 0.000E+00 0.000E+00 0.000E+00 0.000E+00
BIGSUB    1        0   10.17227E+01    48.800     0.000    32.914    23.420   107.457     0.059     0.934     0.001     9.494     2.857     0.001     0.000     0.000     0.000     0.000     7.925     0.003     0.000 .00000E+00 0.000E+00 0.000E+00 0.000E+00 0.000E+00 0.000E+00
BIGSUB    2        0   10.22328E+01    48.800     0.000    32.978    23.896   108.793     0.130     2.767     0.002     9.243     6.914     0.003     0.000     0.001     0.000     0.000     5.822     0.003     0.000 .00000E+00 0.000E+00 0.000E+00 0.000E+00 0.000E+00 0.000E+00
BIGSUB    3        0   10.18344E+01    48.800     0.000    32.997    23.408   106.997     0.017     1.667     0.000    10.035     4.567     0.001     0.000     0.001     0.000     0.000     7.776     0.003     0.000 .00000E+00 0.000E+00 0.000E+00 0.000E+00 0.000E+00 0.000E+00
BIGSUB    1        0   11.17227E+01    56.000     0.000    23.556    18.705   119.432     6.769     4.800     0.074    17.940    13.568     0.015     0.002     0.000     0.000     0.002    12.610     0.039     0.000 .00000E+00 0.000E+00 0.000E+00 0.000E+00 0.000E+00 0.000E+00
BIGSUB    2        0   11.22328E+01    56.000     0.000    23.582    18.750   119.631     8.364     8.472     0.162    17.905    18.719     0.035     0.004     0.001     0.000     0.004     8.801     0.028     0.000 .00000E+00 0.000E+00 0.000E+00 0.000E+00 0.000E+00 0.000E+00
BIGSUB    3        0   11.18344E+01    56.000     0.000    23.589    18.714   119.456     5.321     6.260     0.026    18.878    16.465     0.006     0.001     0.001     0.000     0.001    12.167     0.038     0.000 .00000E+00 0.000E+00 0.000E+00 0.000E+00 0.000E+00 0.000E+00
BIGSUB    1        0   12.17227E+01   212.000     0.000    14.288    14.228   119.967    94.297    27.398    15.276   116.462    79.219     0.087     0.011     0.001     0.000     0.009    73.201     0.244     0.005 .00000E+00 0.000E+00 0.000E+00 0.000E+00 0.000E+00 0.000E+00
BIGSUB    2        0   12.22328E+01   212.000     0.000    14.291    14.193   119.997    97.994    48.117    16.641   115.070   106.517     0.193     0.024     0.002     0.000     0.019    49.696     0.191     0.005 .00000E+00 0.000E+00 0.000E+00 0.000E+00 0.000E+00 0.000E+00
BIGSUB    3        0   12.18344E+01   212.000     0.000    14.292    14.222   119.967    88.831    35.855    14.016   120.731    95.418     0.035     0.004     0.001     0.000     0.004    70.318     0.246     0.004 .00000E+00 0.000E+00 0.000E+00 0.000E+00 0.000E+00 0.000E+00
BIGSUB    1        0 1983.17227E+01  1110.700     0.000   409.729   272.935   119.967   342.220   191.390   281.364   788.993   753.743    30.471     3.731     0.004     0.004     2.983   300.555     0.703     0.081 .00000E+00 0.000E+00 0.000E+00 0.000E+00 0.000E+00 0.000E+00
BIGSUB    2        0 1983.22328E+01  1110.700     0.000   411.092   273.067   119.997   352.746   280.051   291.093   789.686   775.700    30.798     3.771     0.010     0.006     3.017   202.276     0.555     0.088 .00000E+00 0.000E+00 0.000E+00 0.000E+00 0.000E+00 0.000E+00
BIGSUB    3        0 1983.18344E+01  1110.700     0.000   411.488   273.024   119.967   318.843   227.483   261.972   791.976   819.190    31.068     3.804     0.007     0.003     3.045   287.880     0.712     0.077 .00000E+00 0.000E+00 0.000E+00 0.000E+00 0.000E+00 0.000E+00
BIGSUB    1        0    1.17227E+01   211.400     0.000    14.115    14.115   120.056    92.505    30.710    47.892   152.529   109.724    21.375     2.617     0.000     0.001     2.069    72.726     0.141     0.020 .00000E+00 0.000E+00 0.000E+00 0.000E+00 0.000E+00 0.000E+00
BIGSUB    2        0    1.22328E+01   211.400     0.000    14.132    14.132   120.103    95.851    51.089    50.218   151.936   135.310    21.292     2.607     0.001     0.002     2.068    49.370     0.116     0.023 .00000E+00 0.000E+00 0.000E+00 0.000E+00 0.000E+00 0.000E+00
BIGSUB    3        0    1.18344E+01   211.400     0.000    14.137    14.137   120.023    87.117    39.049    44.812   154.850   127.618    22.860     2.799     0.001     0.001     2.216    69.869     0.145     0.019 .00000E+00 0.000E+00 0.000E+00 0.000E+00 0.000E+00 0.000E+00
BIGSUB    1        0    2.17227E+01   434.000     0.000    21.638    21.638   120.054   161.332   122.853    76.424   327.745   336.454     8.702     1.066     0.000     0.002     0.867   126.517     0.134     0.035 .00000E+00 0.000E+00 0.000E+00 0.000E+00 0.000E+00 0.000E+00
BIGSUB    2        0    2.22328E+01   434.000     0.000    21.695    21.695   120.100   160.118   170.605    78.500   331.689   338.517     7.663     0.938     0.001     0.003     0.754    80.564     0.108     0.037 .00000E+00 0.000E+00 0.000E+00 0.000E+00 0.000E+00 0.000E+00
BIGSUB    3        0    2.18344E+01   434.000     0.000    21.712    21.712   120.023   149.084   142.346    71.454   335.009   363.061     7.914     0.969     0.001     0.001     0.791   119.387     0.137     0.033 .00000E+00 0.000E+00 0.000E+00 0.000E+00 0.000E+00 0.000E+00
BIGSUB    1        0    3.17227E+01   258.500     0.000    31.952    31.823   120.083   101.488    42.290   114.093   243.437   100.069     0.186     0.023     0.000     0.000     0.020    83.819     0.059     0.041 .00000E+00 0.000E+00 0.000E+00 0.000E+00 0.000E+00 0.000E+00
BIGSUB    2        0    3.22328E+01   258.500     0.000    32.080    31.949   120.153   103.565    67.935   115.187   241.965   122.538     0.502     0.061     0.001     0.001     0.049    55.543     0.052     0.043 .00000E+00 0.000E+00 0.000E+00 0.000E+00 0.000E+00 0.000E+00
BIGSUB    3        0    3.18344E+01   258.500     0.000    32.118    31.986   120.034    94.698    52.719   106.069   241.734   116.095     0.097     0.012     0.000     0.000     0.012    79.933     0.062     0.039 .00000E+00 0.000E+00 0.000E+00 0.000E+00 0.000E+00 0.000E+00
BIGSUB    1        0    4.17227E+01    79.600     0.000    42.399    39.074   116.881    20.183     3.342    95.751   128.313    11.937     0.016     0.002     0.000     0.000     0.002    25.592     0.018     0.020 .00000E+00 0.000E+00 0.000E+00 0.000E+00 0.000E+00 0.000E+00
BIGSUB    2        0    4.22328E+01    79.600     0.000    42.532    39.193   116.910    21.595     7.965    97.134   126.566    23.190     0.037     0.004     0.000     0.000     0.003    17.772     0.015     0.022 .00000E+00 0.000E+00 0.000E+00 0.000E+00 0.000E+00 0.000E+00
BIGSUB    3        0    4.18344E+01    79.600     0.000    42.571    39.228   116.866    18.786     5.128    89.122   122.331    17.044     0.007     0.001     0.000     0.000     0.001    24.702     0.018     0.020 .00000E+00 0.000E+00 0.000E+00 0.000E+00 0.000E+00 0.000E+00
BIGSUB    1        0    5.17227E+01    41.000     0.000    50.941    39.799   110.376     1.614     0.611    58.377    68.047     1.841     0.000     0.000     0.000     0.000     0.000     5.602     0.002     0.006 .00000E+00 0.000E+00 0.000E+00 0.000E+00 0.000E+00 0.000E+00
BIGSUB    2        0    5.22328E+01    41.000     0.000    51.145    39.937   110.297     1.816     2.037    59.664    69.146     4.983     0.001     0.000     0.000     0.000     0.000     3.920     0.001     0.006 .00000E+00 0.000E+00 0.000E+00 0.000E+00 0.000E+00 0.000E+00
BIGSUB    3        0    5.18344E+01    41.000     0.000    51.205    39.929   110.201     1.262     1.191    54.318    64.132     3.148     0.000     0.000     0.000     0.000     0.000     5.405     0.002     0.006 .00000E+00 0.000E+00 0.000E+00 0.000E+00 0.000E+00 0.000E+00
BIGSUB    1        0    6.17227E+01    23.600     0.000    53.037    32.282   100.380     0.000     0.016    26.489    30.532     0.048     0.000     0.000     0.000     0.000     0.000     1.296     0.000     0.001 .00000E+00 0.000E+00 0.000E+00 0.000E+00 0.000E+00 0.000E+00
BIGSUB    2        0    6.22328E+01    23.600     0.000    53.266    32.450   100.396     0.000     0.057    27.199    31.036     0.142     0.000     0.000     0.000     0.000     0.000     0.991     0.000     0.001 .00000E+00 0.000E+00 0.000E+00 0.000E+00 0.000E+00 0.000E+00
BIGSUB    3        0    6.18344E+01    23.600     0.000    53.332    32.313   100.161     0.000     0.032    24.583    28.447     0.086     0.000     0.000     0.000     0.000     0.000     1.291     0.001     0.001 .00000E+00 0.000E+00 0.000E+00 0.000E+00 0.000E+00 0.000E+00
BIGSUB    1        0    7.17227E+01     6.900     0.000    54.245    16.602    90.665     0.000     0.000    10.260    12.474     0.000     0.000     0.000     0.000     0.000     0.000     0.031     0.000     0.000 .00000E+00 0.000E+00 0.000E+00 0.000E+00 0.000E+00 0.000E+00
BIGSUB    2        0    7.22328E+01     6.900     0.000    54.455    16.682    90.605     0.000     0.000    10.291    12.545     0.000     0.000     0.000     0.000     0.000     0.000     0.024     0.000     0.000 .00000E+00 0.000E+00 0.000E+00 0.000E+00 0.000E+00 0.000E+00
BIGSUB    3        0    7.18344E+01     6.900     0.000    54.516    16.595    90.454     0.000     0.000     8.985    11.047     0.000     0.000     0.000     0.000     0.000     0.000     0.031     0.000     0.000 .00000E+00 0.000E+00 0.000E+00 0.000E+00 0.000E+00 0.000E+00
BIGSUB    1        0    8.17227E+01    13.300     0.000    45.388    16.201    86.823     0.000     0.000     1.081     3.649     0.000     0.000     0.000     0.000     0.000     0.000     0.928     0.001     0.000 .00000E+00 0.000E+00 0.000E+00 0.000E+00 0.000E+00 0.000E+00
BIGSUB    2        0    8.22328E+01    13.300     0.000    45.573    15.999    87.184     0.000     0.000     1.249     3.637     0.000     0.000     0.000     0.000     0.000     0.000     0.712     0.001     0.000 .00000E+00 0.000E+00 0.000E+00 0.000E+00 0.000E+00 0.000E+00
BIGSUB    3        0    8.18344E+01    13.300     0.000    45.627    16.138    86.677     0.000     0.000     0.840     3.292     0.000     0.000     0.000     0.000     0.000     0.000     0.926     0.001     0.000 .00000E+00 0.000E+00 0.000E+00 0.000E+00 0.000E+00 0.000E+00
BIGSUB    1        0    9.17227E+01    15.700     0.000    36.765    15.022    86.138     0.000     0.022     0.113     2.652     0.050     0.000     0.000     0.000     0.000     0.000     1.333     0.001     0.000 .00000E+00 0.000E+00 0.000E+00 0.000E+00 0.000E+00 0.000E+00
BIGSUB    2        0    9.22328E+01    15.700     0.000    36.857    14.745    87.041     0.000     0.082     0.142     2.444     0.151     0.000     0.000     0.000     0.000     0.000     1.010     0.001     0.000 .00000E+00 0.000E+00 0.000E+00 0.000E+00 0.000E+00 0.000E+00
BIGSUB    3        0    9.18344E+01    15.700     0.000    36.883    14.917    86.079     0.000     0.046     0.085     2.559     0.090     0.000     0.000     0.000     0.000     0.000     1.327     0.001     0.000 .00000E+00 0.000E+00 0.000E+00 0.000E+00 0.000E+00 0.000E+00
BIGSUB    1        0   10.17227E+01    79.100     0.000    30.912    23.852   118.547     3.787     3.151     0.111    19.809    11.633     0.008     0.001     0.000     0.000     0.001    15.638     0.026     0.000 .00000E+00 0.000E+00 0.000E+00 0.000E+00 0.000E+00 0.000E+00
BIGSUB    2        0   10.22328E+01    79.100     0.000    30.986    23.894   118.080     5.283     7.663     0.309    19.933    20.098     0.023     0.003     0.001     0.000     0.002    11.029     0.019     0.000 .00000E+00 0.000E+00 0.000E+00 0.000E+00 0.000E+00 0.000E+00
BIGSUB    3        0   10.18344E+01    79.100     0.000    31.008    23.865   118.114     2.862     4.939     0.047    20.974    15.648     0.004     0.001     0.001     0.000     0.000    15.142     0.025     0.000 .00000E+00 0.000E+00 0.000E+00 0.000E+00 0.000E+00 0.000E+00
BIGSUB    1        0   11.17227E+01   122.500     0.000    14.895    14.811   120.027    47.402    19.131     3.602    58.014    74.535     0.058     0.007     0.001     0.000     0.006    34.574     0.114     0.000 .00000E+00 0.000E+00 0.000E+00 0.000E+00 0.000E+00 0.000E+00
BIGSUB    2        0   11.22328E+01   122.500     0.000    14.923    14.772   120.061    49.156    29.261     4.384    58.190    84.494     0.169     0.021     0.001     0.000     0.017    23.812     0.085     0.000 .00000E+00 0.000E+00 0.000E+00 0.000E+00 0.000E+00 0.000E+00
BIGSUB    3        0   11.18344E+01   122.500     0.000    14.931    14.826   120.007    44.304    23.385     3.053    60.407    83.915     0.026     0.003     0.001     0.000     0.003    33.317     0.112     0.000 .00000E+00 0.000E+00 0.000E+00 0.000E+00 0.000E+00 0.000E+00
BIGSUB    1        0   12.17227E+01   185.000     0.000    13.514    13.434   120.038    78.411    30.447    31.748   126.357    94.697     0.121     0.015     0.000     0.000     0.011    63.117     0.142     0.009 .00000E+00 0.000E+00 0.000E+00 0.000E+00 0.000E+00 0.000E+00
BIGSUB    2        0   12.22328E+01   185.000     0.000    13.513    13.411   120.087    80.824    48.682    33.039   125.157   108.121     0.291     0.036     0.001     0.001     0.028    42.352     0.109     0.010 .00000E+00 0.000E+00 0.000E+00 0.000E+00 0.000E+00 0.000E+00
BIGSUB    3        0   12.18344E+01   185.000     0.000    13.513    13.426   120.011    73.645    37.784    29.443   128.637   106.912     0.050     0.006     0.001     0.000     0.005    60.443     0.142     0.008 .00000E+00 0.000E+00 0.000E+00 0.000E+00 0.000E+00 0.000E+00
BIGSUB    1        0 1984.17227E+01  1470.600     0.000   409.801   278.652   120.038   506.722   252.572   465.940  1173.557   740.988    30.466     3.730     0.003     0.004     2.975   431.174     0.638     0.132 .00000E+00 0.000E+00 0.000E+00 0.000E+00 0.000E+00 0.000E+00
BIGSUB    2        0 1984.22328E+01  1470.600     0.000   411.158   278.860   120.087   518.208   385.376   477.317  1174.243   837.543    29.978     3.670     0.007     0.006     2.922   287.099     0.507     0.143 .00000E+00 0.000E+00 0.000E+00 0.000E+00 0.000E+00 0.000E+00
BIGSUB    3        0 1984.18344E+01  1470.600     0.000   411.553   279.070   120.011   471.759   306.618   432.812  1173.418   833.616    30.959     3.790     0.004     0.003     3.028   411.773     0.647     0.126 .00000E+00 0.000E+00 0.000E+00 0.000E+00 0.000E+00 0.000E+00
BIGSUB    1        0    1.17227E+01   162.300     0.000    13.058    13.058   120.070    73.469    16.685    52.608   129.410    51.138    13.164     1.611     0.000     0.001     1.273    58.541     0.094     0.016 .00000E+00 0.000E+00 0.000E+00 0.000E+00 0.000E+00 0.000E+00
BIGSUB    2        0    1.22328E+01   162.300     0.000    13.076    13.076   120.130    77.656    30.252    54.832   127.662    71.633    16.229     1.986     0.000     0.001     1.574    40.940     0.077     0.018 .00000E+00 0.000E+00 0.000E+00 0.000E+00 0.000E+00 0.000E+00
BIGSUB    3        0    1.18344E+01   162.300     0.000    13.081    13.081   120.029    69.772    22.250    49.400   129.844    62.692    15.275     1.870     0.000     0.001     1.479    56.723     0.096     0.015 .00000E+00 0.000E+00 0.000E+00 0.000E+00 0.000E+00 0.000E+00
BIGSUB    1        0    2.17227E+01   217.300     0.000    16.282    16.282   120.027    88.541    41.590    58.129   173.932   145.286    13.233     1.620     0.000     0.001     1.294    72.339     0.087     0.017 .00000E+00 0.000E+00 0.000E+00 0.000E+00 0.000E+00 0.000E+00
BIGSUB    2        0    2.22328E+01   217.300     0.000    16.331    16.331   120.051    90.936    62.709    60.722   173.738   154.443     8.093     0.990     0.001     0.001     0.797    48.354     0.069     0.019 .00000E+00 0.000E+00 0.000E+00 0.000E+00 0.000E+00 0.000E+00
BIGSUB    3        0    2.18344E+01   217.300     0.000    16.345    16.345   120.012    82.947    50.160    54.808   175.908   159.732    12.101     1.481     0.000     0.001     1.187    69.181     0.088     0.016 .00000E+00 0.000E+00 0.000E+00 0.000E+00 0.000E+00 0.000E+00
BIGSUB    1        0    3.17227E+01   192.100     0.000    34.423    31.991   120.090    73.497    24.763    74.051   160.980    62.540     1.625     0.199     0.000     0.000     0.165    59.585     0.057     0.019 .00000E+00 0.000E+00 0.000E+00 0.000E+00 0.000E+00 0.000E+00
BIGSUB    2        0    3.22328E+01   192.100     0.000    34.531    32.095   120.167    75.397    42.967    76.834   162.601    86.569     1.481     0.181     0.001     0.000     0.147    40.116     0.046     0.020 .00000E+00 0.000E+00 0.000E+00 0.000E+00 0.000E+00 0.000E+00
BIGSUB    3        0    3.18344E+01   192.100     0.000    34.563    32.125   120.038    68.626    32.308    69.640   161.440    76.258     1.537     0.189     0.001     0.000     0.156    57.068     0.058     0.018 .00000E+00 0.000E+00 0.000E+00 0.000E+00 0.000E+00 0.000E+00
BIGSUB    1        0    4.17227E+01    68.200     0.000    34.829    34.452   118.891    16.832     1.242    66.377    93.232     3.879     0.018     0.002     0.000     0.000     0.002    22.849     0.020     0.012 .00000E+00 0.000E+00 0.000E+00 0.000E+00 0.000E+00 0.000E+00
BIGSUB    2        0    4.22328E+01    68.200     0.000    34.960    34.577   118.898    18.812     3.774    68.715    91.671    10.658     0.033     0.004     0.000     0.000     0.003    16.314     0.017     0.013 .00000E+00 0.000E+00 0.000E+00 0.000E+00 0.000E+00 0.000E+00
BIGSUB    3        0    4.18344E+01    68.200     0.000    34.999    34.613   118.820    16.000     2.119    62.262    89.205     6.704     0.011     0.001     0.000     0.000     0.001    22.232     0.021     0.011 .00000E+00 0.000E+00 0.000E+00 0.000E+00 0.000E+00 0.000E+00
BIGSUB    1        0    5.17227E+01    23.500     0.000    47.410    31.672   108.596     0.000     0.103    42.517    47.455     0.379     0.000     0.000     0.000     0.000     0.000     2.209     0.000     0.004 .00000E+00 0.000E+00 0.000E+00 0.000E+00 0.000E+00 0.000E+00
BIGSUB    2        0    5.22328E+01    23.500     0.000    47.619    31.818   108.706     0.000     0.367    44.269    49.005     1.097     0.000     0.000     0.000     0.000     0.000     1.642     0.000     0.004 .00000E+00 0.000E+00 0.000E+00 0.000E+00 0.000E+00 0.000E+00
BIGSUB    3        0    5.18344E+01    23.500     0.000    47.680    31.694   108.417     0.000     0.211    39.890    44.747     0.676     0.000     0.000     0.000     0.000     0.000     2.183     0.000     0.004 .00000E+00 0.000E+00 0.000E+00 0.000E+00 0.000E+00 0.000E+00
BIGSUB    1        0    6.17227E+01    15.300     0.000    45.518    23.819    99.175     0.000     0.000    19.383    22.445     0.000     0.000     0.000     0.000     0.000     0.000     0.993     0.000     0.001 .00000E+00 0.000E+00 0.000E+00 0.000E+00 0.000E+00 0.000E+00
BIGSUB    2        0    6.22328E+01    15.300     0.000    45.731    24.011    99.300     0.000     0.000    20.234    23.149     0.000     0.000     0.000     0.000     0.000     0.000     0.765     0.000     0.001 .00000E+00 0.000E+00 0.000E+00 0.000E+00 0.000E+00 0.000E+00
BIGSUB    3        0    6.18344E+01    15.300     0.000    45.794    23.815    99.001     0.000     0.000    18.186    21.118     0.000     0.000     0.000     0.000     0.000     0.000     0.991     0.000     0.001 .00000E+00 0.000E+00 0.000E+00 0.000E+00 0.000E+00 0.000E+00
BIGSUB    1        0    7.17227E+01     7.500     0.000    44.489    16.002    90.630     0.000     0.000     6.528     8.238     0.000     0.000     0.000     0.000     0.000     0.000     0.059     0.000     0.000 .00000E+00 0.000E+00 0.000E+00 0.000E+00 0.000E+00 0.000E+00
BIGSUB    2        0    7.22328E+01     7.500     0.000    44.685    16.087    90.681     0.000     0.000     6.873     8.635     0.000     0.000     0.000     0.000     0.000     0.000     0.045     0.000     0.000 .00000E+00 0.000E+00 0.000E+00 0.000E+00 0.000E+00 0.000E+00
BIGSUB    3        0    7.18344E+01     7.500     0.000    44.742    15.994    90.466     0.000     0.000     5.802     7.409     0.000     0.000     0.000     0.000     0.000     0.000     0.058     0.000     0.000 .00000E+00 0.000E+00 0.000E+00 0.000E+00 0.000E+00 0.000E+00
BIGSUB    1        0    8.17227E+01    13.100     0.000    50.408    15.547    87.181     0.000     0.046     0.328     2.402     0.174     0.000     0.000     0.000     0.000     0.000     0.789     0.001     0.000 .00000E+00 0.000E+00 0.000E+00 0.000E+00 0.000E+00 0.000E+00
BIGSUB    2        0    8.22328E+01    13.100     0.000    50.605    15.331    87.574     0.000     0.162     0.480     2.517     0.503     0.000     0.000     0.000     0.000     0.000     0.586     0.001     0.000 .00000E+00 0.000E+00 0.000E+00 0.000E+00 0.000E+00 0.000E+00
BIGSUB    3        0    8.18344E+01    13.100     0.000    50.663    15.453    87.072     0.000     0.093     0.234     2.272     0.309     0.000     0.000     0.000     0.000     0.000     0.781     0.001     0.000 .00000E+00 0.000E+00 0.000E+00 0.000E+00 0.000E+00 0.000E+00
BIGSUB    1        0    9.17227E+01    28.200     0.000    42.310    20.536    91.715     0.000     0.038     0.013     3.975     0.149     0.000     0.000     0.000     0.000     0.000     3.031     0.002     0.000 .00000E+00 0.000E+00 0.000E+00 0.000E+00 0.000E+00 0.000E+00
BIGSUB    2        0    9.22328E+01    28.200     0.000    42.460    20.332    92.954     0.000     0.136     0.044     3.414     0.433     0.000     0.000     0.000     0.000     0.000     2.304     0.001     0.000 .00000E+00 0.000E+00 0.000E+00 0.000E+00 0.000E+00 0.000E+00
BIGSUB    3        0    9.18344E+01    28.200     0.000    42.504    20.433    91.681     0.000     0.077     0.007     3.941     0.265     0.000     0.000     0.000     0.000     0.000     3.019     0.002     0.000 .00000E+00 0.000E+00 0.000E+00 0.000E+00 0.000E+00 0.000E+00
BIGSUB    1        0   10.17227E+01    36.600     0.000    34.861    17.384   104.013     0.000     1.884     0.000     6.889     8.995     0.083     0.010     0.001     0.000     0.009     4.319     0.001     0.000 .00000E+00 0.000E+00 0.000E+00 0.000E+00 0.000E+00 0.000E+00
BIGSUB    2        0   10.22328E+01    36.600     0.000    34.939    17.714   104.621     0.000     3.650     0.000     7.471    14.168     0.092     0.011     0.001     0.000     0.009     3.109     0.001     0.000 .00000E+00 0.000E+00 0.000E+00 0.000E+00 0.000E+00 0.000E+00
BIGSUB    3        0   10.18344E+01    36.600     0.000    34.962    17.328   103.456     0.000     2.605     0.000     7.483    11.581     0.080     0.010     0.001     0.000     0.008     4.236     0.001     0.000 .00000E+00 0.000E+00 0.000E+00 0.000E+00 0.000E+00 0.000E+00
BIGSUB    1        0   11.17227E+01    60.700     0.000    23.734    19.976   119.025     5.334     6.765     0.183    21.444    22.004     0.247     0.030     0.001     0.000     0.025    13.999     0.037     0.000 .00000E+00 0.000E+00 0.000E+00 0.000E+00 0.000E+00 0.000E+00
BIGSUB    2        0   11.22328E+01    60.700     0.000    23.749    19.759   118.202     6.531    11.816     0.489    22.038    30.393     0.292     0.036     0.002     0.000     0.029     9.214     0.025     0.000 .00000E+00 0.000E+00 0.000E+00 0.000E+00 0.000E+00 0.000E+00
BIGSUB    3        0   11.18344E+01    60.700     0.000    23.753    19.830   118.488     4.141     8.741     0.098    22.588    26.770     0.234     0.029     0.002     0.000     0.024    13.283     0.035     0.000 .00000E+00 0.000E+00 0.000E+00 0.000E+00 0.000E+00 0.000E+00
BIGSUB    1        0   12.17227E+01   162.600     0.000    15.964    15.872   120.055    67.502    22.877     8.603    82.818    46.692     0.511     0.063     0.001     0.000     0.053    50.820     0.171     0.002 .00000E+00 0.000E+00 0.000E+00 0.000E+00 0.000E+00 0.000E+00
BIGSUB    2        0   12.22328E+01   162.600     0.000    15.966    15.843   120.142    69.639    37.336     9.217    81.927    58.507     0.640     0.079     0.002     0.000     0.063    34.829     0.128     0.002 .00000E+00 0.000E+00 0.000E+00 0.000E+00 0.000E+00 0.000E+00
BIGSUB    3        0   12.18344E+01   162.600     0.000    15.967    15.866   120.009    63.213    28.870     7.549    85.833    54.620     0.488     0.060     0.001     0.000     0.050    48.936     0.169     0.001 .00000E+00 0.000E+00 0.000E+00 0.000E+00 0.000E+00 0.000E+00
BIGSUB    1        0 1985.17227E+01   987.400     0.000   403.285   256.591   120.055   325.176   115.992   328.720   753.219   341.237    28.882     3.535     0.004     0.002     2.820   289.535     0.470     0.069 .00000E+00 0.000E+00 0.000E+00 0.000E+00 0.000E+00 0.000E+00
BIGSUB    2        0 1985.22328E+01   987.400     0.000   404.655   256.973   120.142   338.970   193.168   342.708   753.830   428.407    26.859     3.289     0.009     0.003     2.621   198.217     0.365     0.077 .00000E+00 0.000E+00 0.000E+00 0.000E+00 0.000E+00 0.000E+00
BIGSUB    3        0 1985.18344E+01   987.400     0.000   405.053   256.577   120.009   304.699   147.435   307.876   751.788   399.607    29.727     3.640     0.006     0.002     2.905   278.692     0.472     0.065 .00000E+00 0.000E+00 0.000E+00 0.000E+00 0.000E+00 0.000E+00
BIGSUB    1        0    1.17227E+01   296.100     0.000    14.584    14.584   120.035   125.113    57.094    41.661   198.318   184.883    26.986     3.302     0.000     0.002     2.627    98.525     0.186     0.016 .00000E+00 0.000E+00 0.000E+00 0.000E+00 0.000E+00 0.000E+00
BIGSUB    2        0    1.22328E+01   296.100     0.000    14.610    14.610   120.065   128.182    87.199    43.329   197.256   201.171    25.285     3.094     0.001     0.003     2.464    65.645     0.145     0.018 .00000E+00 0.000E+00 0.000E+00 0.000E+00 0.000E+00 0.000E+00
BIGSUB    3        0    1.18344E+01   296.100     0.000    14.618    14.618   120.015   117.197    69.365    38.853   203.338   205.018    27.982     3.424     0.001     0.002     2.727    94.155     0.187     0.015 .00000E+00 0.000E+00 0.000E+00 0.000E+00 0.000E+00 0.000E+00
BIGSUB    1        0    2.17227E+01   312.300     0.000    20.015    20.015   120.090   117.859    80.161    73.986   248.675   297.805     3.155     0.386     0.000     0.001     0.327    92.719     0.095     0.032 .00000E+00 0.000E+00 0.000E+00 0.000E+00 0.000E+00 0.000E+00
BIGSUB    2        0    2.22328E+01   312.300     0.000    20.078    20.078   120.168   117.970   113.342    75.780   250.874   299.074     4.082     0.501     0.001     0.002     0.407    59.885     0.075     0.034 .00000E+00 0.000E+00 0.000E+00 0.000E+00 0.000E+00 0.000E+00
BIGSUB    3        0    2.18344E+01   312.300     0.000    20.097    20.097   120.038   109.293    93.729    69.129   252.371   320.954     2.973     0.365     0.001     0.001     0.309    87.825     0.096     0.030 .00000E+00 0.000E+00 0.000E+00 0.000E+00 0.000E+00 0.000E+00
BIGSUB    1        0    3.17227E+01   182.800     0.000    31.817    30.980   116.629    77.564    14.150    99.792   185.986    33.981     0.062     0.008     0.000     0.000     0.006    69.130     0.054     0.032 .00000E+00 0.000E+00 0.000E+00 0.000E+00 0.000E+00 0.000E+00
BIGSUB    2        0    3.22328E+01   182.800     0.000    31.913    31.077   116.645    81.444    30.092   101.491   181.909    57.118     0.162     0.021     0.000     0.000     0.016    47.343     0.047     0.034 .00000E+00 0.000E+00 0.000E+00 0.000E+00 0.000E+00 0.000E+00
BIGSUB    3        0    3.18344E+01   182.800     0.000    31.941    31.105   116.620    73.180    20.493    93.053   182.810    45.193     0.041     0.005     0.000     0.000     0.005    66.546     0.057     0.030 .00000E+00 0.000E+00 0.000E+00 0.000E+00 0.000E+00 0.000E+00
BIGSUB    1        0    4.17227E+01   117.500     0.000    33.594    33.045   120.094    35.608    12.524    83.240   129.160    51.897     0.046     0.006     0.000     0.000     0.005    30.176     0.024     0.016 .00000E+00 0.000E+00 0.000E+00 0.000E+00 0.000E+00 0.000E+00
BIGSUB    2        0    4.22328E+01   117.500     0.000    33.716    33.170   120.174    37.140    20.890    85.349   130.486    63.729     0.160     0.020     0.001     0.000     0.016    20.946     0.020     0.018 .00000E+00 0.000E+00 0.000E+00 0.000E+00 0.000E+00 0.000E+00
BIGSUB    3        0    4.18344E+01   117.500     0.000    33.751    33.193   120.039    33.261    16.117    77.810   126.062    60.278     0.037     0.005     0.000     0.000     0.005    29.129     0.024     0.016 .00000E+00 0.000E+00 0.000E+00 0.000E+00 0.000E+00 0.000E+00
BIGSUB    1        0    5.17227E+01    35.300     0.000    55.390    35.442   109.468     4.300     0.518    55.589    68.948     0.667     0.013     0.002     0.000     0.000     0.001     9.705     0.009     0.006 .00000E+00 0.000E+00 0.000E+00 0.000E+00 0.000E+00 0.000E+00
BIGSUB    2        0    5.22328E+01    35.300     0.000    55.608    35.592   109.636     4.818     1.439    57.468    68.897     1.916     0.027     0.003     0.000     0.000     0.002     6.768     0.007     0.007 .00000E+00 0.000E+00 0.000E+00 0.000E+00 0.000E+00 0.000E+00
BIGSUB    3        0    5.18344E+01    35.300     0.000    55.671    35.536   109.317     4.072     0.711    52.027    65.061     1.186     0.005     0.001     0.000     0.000     0.000     9.394     0.009     0.006 .00000E+00 0.000E+00 0.000E+00 0.000E+00 0.000E+00 0.000E+00
BIGSUB    1        0    6.17227E+01    10.100     0.000    61.684    24.710    94.641     0.000     0.000    27.158    30.334     0.000     0.000     0.000     0.000     0.000     0.000     0.648     0.000     0.001 .00000E+00 0.000E+00 0.000E+00 0.000E+00 0.000E+00 0.000E+00
BIGSUB    2        0    6.22328E+01    10.100     0.000    61.952    24.894    94.674     0.000     0.001    28.178    31.270     0.000     0.000     0.000     0.000     0.000     0.000     0.490     0.000     0.001 .00000E+00 0.000E+00 0.000E+00 0.000E+00 0.000E+00 0.000E+00
BIGSUB    3        0    6.18344E+01    10.100     0.000    62.029    24.691    94.509     0.000     0.000    25.430    28.437     0.000     0.000     0.000     0.000     0.000     0.000     0.644     0.000     0.001 .00000E+00 0.000E+00 0.000E+00 0.000E+00 0.000E+00 0.000E+00
BIGSUB    1        0    7.17227E+01    16.800     0.000    54.340    21.404    89.160     0.000     0.000    11.157    14.047     0.000     0.000     0.000     0.000     0.000     0.000     0.852     0.001     0.000 .00000E+00 0.000E+00 0.000E+00 0.000E+00 0.000E+00 0.000E+00
BIGSUB    2        0    7.22328E+01    16.800     0.000    54.569    21.496    89.301     0.000     0.000    11.508    14.263     0.000     0.000     0.000     0.000     0.000     0.000     0.656     0.001     0.000 .00000E+00 0.000E+00 0.000E+00 0.000E+00 0.000E+00 0.000E+00
BIGSUB    3        0    7.18344E+01    16.800     0.000    54.635    21.419    89.014     0.000     0.000    10.165    12.921     0.000     0.000     0.000     0.000     0.000     0.000     0.851     0.001     0.000 .00000E+00 0.000E+00 0.000E+00 0.000E+00 0.000E+00 0.000E+00
BIGSUB    1        0    8.17227E+01    23.100     0.000    56.757    21.733    87.503     0.000     0.781     0.966     5.542     3.042     0.002     0.000     0.001     0.000     0.000     2.257     0.001     0.000 .00000E+00 0.000E+00 0.000E+00 0.000E+00 0.000E+00 0.000E+00
BIGSUB    2        0    8.22328E+01    23.100     0.000    56.950    21.009    87.957     0.000     1.930     1.249     6.280     6.489     0.005     0.001     0.002     0.000     0.000     1.517     0.001     0.000 .00000E+00 0.000E+00 0.000E+00 0.000E+00 0.000E+00 0.000E+00
BIGSUB    3        0    8.18344E+01    23.100     0.000    57.007    21.457    87.257     0.000     1.245     0.719     5.571     4.546     0.001     0.000     0.001     0.000     0.000     2.170     0.001     0.000 .00000E+00 0.000E+00 0.000E+00 0.000E+00 0.000E+00 0.000E+00
BIGSUB    1        0    9.17227E+01    25.000     0.000    38.333    19.300    90.566     0.000     0.118     0.043     3.746     0.320     0.000     0.000     0.000     0.000     0.000     2.473     0.001     0.000 .00000E+00 0.000E+00 0.000E+00 0.000E+00 0.000E+00 0.000E+00
BIGSUB    2        0    9.22328E+01    25.000     0.000    38.433    19.249    91.409     0.000     0.425     0.087     3.497     0.942     0.000     0.000     0.000     0.000     0.000     1.841     0.001     0.000 .00000E+00 0.000E+00 0.000E+00 0.000E+00 0.000E+00 0.000E+00
BIGSUB    3        0    9.18344E+01    25.000     0.000    38.462    19.156    90.366     0.000     0.242     0.022     3.752     0.573     0.000     0.000     0.000     0.000     0.000     2.448     0.001     0.000 .00000E+00 0.000E+00 0.000E+00 0.000E+00 0.000E+00 0.000E+00
BIGSUB    1        0   10.17227E+01    37.100     0.000    28.833    19.574   102.670     0.000     0.586     0.001     6.038     3.318     0.001     0.000     0.000     0.000     0.000     4.598     0.001     0.000 .00000E+00 0.000E+00 0.000E+00 0.000E+00 0.000E+00 0.000E+00
BIGSUB    2        0   10.22328E+01    37.100     0.000    28.915    19.858   103.493     0.000     1.639     0.002     5.876     7.693     0.003     0.000     0.000     0.000     0.000     3.356     0.001     0.000 .00000E+00 0.000E+00 0.000E+00 0.000E+00 0.000E+00 0.000E+00
BIGSUB    3        0   10.18344E+01    37.100     0.000    28.939    19.489   102.215     0.000     1.008     0.000     6.331     5.199     0.001     0.000     0.000     0.000     0.000     4.526     0.001     0.000 .00000E+00 0.000E+00 0.000E+00 0.000E+00 0.000E+00 0.000E+00
BIGSUB    1        0   11.17227E+01    61.500     0.000    21.577    19.943   117.746     6.789     4.932     1.010    21.590    11.084     0.017     0.002     0.000     0.000     0.002    15.020     0.039     0.000 .00000E+00 0.000E+00 0.000E+00 0.000E+00 0.000E+00 0.000E+00
BIGSUB    2        0   11.22328E+01    61.500     0.000    21.620    19.923   118.007     7.734     9.199     1.519    21.680    17.084     0.050     0.006     0.001     0.000     0.005    10.310     0.027     0.000 .00000E+00 0.000E+00 0.000E+00 0.000E+00 0.000E+00 0.000E+00
BIGSUB    3        0   11.18344E+01    61.500     0.000    21.632    19.947   117.653     5.341     6.611     0.784    22.393    14.116     0.010     0.001     0.001     0.000     0.001    14.413     0.037     0.000 .00000E+00 0.000E+00 0.000E+00 0.000E+00 0.000E+00 0.000E+00
BIGSUB    1        0   12.17227E+01   148.700     0.000    17.295    17.049   120.039    58.794    21.695     7.084    73.744    78.466     0.079     0.010     0.001     0.000     0.008    44.378     0.143     0.001 .00000E+00 0.000E+00 0.000E+00 0.000E+00 0.000E+00 0.000E+00
BIGSUB    2        0   12.22328E+01   148.700     0.000    17.288    17.006   120.108    61.382    34.783     7.522    73.238    88.940     0.250     0.031     0.002     0.000     0.025    30.320     0.107     0.001 .00000E+00 0.000E+00 0.000E+00 0.000E+00 0.000E+00 0.000E+00
BIGSUB    3        0   12.18344E+01   148.700     0.000    17.287    17.029   120.004    55.273    27.086     6.148    76.465    88.338     0.047     0.006     0.001     0.000     0.005    42.690     0.142     0.001 .00000E+00 0.000E+00 0.000E+00 0.000E+00 0.000E+00 0.000E+00
BIGSUB    1        0 1986.17227E+01  1266.300     0.000   434.219   277.779   120.039   426.028   192.561   401.687   986.127   665.463    30.361     3.715     0.004     0.003     2.977   370.479     0.553     0.104 .00000E+00 0.000E+00 0.000E+00 0.000E+00 0.000E+00 0.000E+00
BIGSUB    2        0 1986.22328E+01  1266.300     0.000   435.652   277.963   120.108   438.670   300.939   413.483   985.527   744.154    30.024     3.678     0.009     0.005     2.937   249.078     0.430     0.113 .00000E+00 0.000E+00 0.000E+00 0.000E+00 0.000E+00 0.000E+00
BIGSUB    3        0 1986.18344E+01  1266.300     0.000   436.068   277.736   120.004   397.617   236.609   374.140   985.511   745.401    31.097     3.808     0.006     0.003     3.052   354.790     0.556     0.098 .00000E+00 0.000E+00 0.000E+00 0.000E+00 0.000E+00 0.000E+00
BIGSUB    1        0    1.17227E+01   265.300     0.000    16.964    16.964   120.104   108.575    52.700    39.632   178.820   183.948    26.335     3.222     0.001     0.002     2.567    85.433     0.166     0.014 .00000E+00 0.000E+00 0.000E+00 0.000E+00 0.000E+00 0.000E+00
BIGSUB    2        0    1.22328E+01   265.300     0.000    16.988    16.988   120.193   111.630    77.985    41.126   177.689   200.034    24.245     2.966     0.001     0.002     2.367    57.479     0.129     0.016 .00000E+00 0.000E+00 0.000E+00 0.000E+00 0.000E+00 0.000E+00
BIGSUB    3        0    1.18344E+01   265.300     0.000    16.995    16.995   120.043   101.888    63.217    36.937   183.002   203.963    27.293     3.339     0.001     0.001     2.663    81.867     0.167     0.013 .00000E+00 0.000E+00 0.000E+00 0.000E+00 0.000E+00 0.000E+00
BIGSUB    1        0    2.17227E+01   224.900     0.000    18.763    18.763   120.060    83.010    56.609    66.989   193.518   142.995     2.713     0.332     0.000     0.001     0.277    68.205     0.079     0.026 .00000E+00 0.000E+00 0.000E+00 0.000E+00 0.000E+00 0.000E+00
BIGSUB    2        0    2.22328E+01   224.900     0.000    18.792    18.792   120.112    83.952    79.005    68.720   193.941   141.427     3.056     0.374     0.001     0.001     0.303    44.445     0.062     0.028 .00000E+00 0.000E+00 0.000E+00 0.000E+00 0.000E+00 0.000E+00
BIGSUB    3        0    2.18344E+01   224.900     0.000    18.801    18.801   120.025    77.216    65.490    62.613   194.471   153.324     2.561     0.314     0.000     0.001     0.262    64.767     0.080     0.024 .00000E+00 0.000E+00 0.000E+00 0.000E+00 0.000E+00 0.000E+00
BIGSUB    1        0    3.17227E+01    92.200     0.000    43.733    36.875   110.757    30.774     6.659    74.268   114.993    22.788     0.056     0.007     0.000     0.000     0.006    31.621     0.032     0.019 .00000E+00 0.000E+00 0.000E+00 0.000E+00 0.000E+00 0.000E+00
BIGSUB    2        0    3.22328E+01    92.200     0.000    43.812    37.000   110.875    32.169    13.609    76.111   113.930    36.427     0.128     0.016     0.000     0.000     0.013    21.696     0.026     0.021 .00000E+00 0.000E+00 0.000E+00 0.000E+00 0.000E+00 0.000E+00
BIGSUB    3        0    3.18344E+01    92.200     0.000    43.835    36.961   110.734    28.845     9.456    69.421   111.610    29.630     0.053     0.007     0.000     0.000     0.006    30.452     0.033     0.018 .00000E+00 0.000E+00 0.000E+00 0.000E+00 0.000E+00 0.000E+00
BIGSUB    1        0    4.17227E+01    34.800     0.000    39.936    28.860   107.915     0.802     3.780    46.313    56.640    22.751     0.049     0.006     0.000     0.000     0.006     4.221     0.001     0.006 .00000E+00 0.000E+00 0.000E+00 0.000E+00 0.000E+00 0.000E+00
BIGSUB    2        0    4.22328E+01    34.800     0.000    40.064    28.732   107.322     1.119     5.758    47.688    58.601    27.122     0.116     0.014     0.001     0.000     0.012     2.760     0.001     0.006 .00000E+00 0.000E+00 0.000E+00 0.000E+00 0.000E+00 0.000E+00
BIGSUB    3        0    4.18344E+01    34.800     0.000    40.102    28.778   107.566     0.616     4.583    43.271    54.037    26.118     0.047     0.006     0.000     0.000     0.006     4.011     0.001     0.006 .00000E+00 0.000E+00 0.000E+00 0.000E+00 0.000E+00 0.000E+00
BIGSUB    1        0    5.17227E+01    14.400     0.000    63.653    25.875    95.487     0.000     0.015    22.841    25.797     0.071     0.000     0.000     0.000     0.000     0.000     0.937     0.000     0.001 .00000E+00 0.000E+00 0.000E+00 0.000E+00 0.000E+00 0.000E+00
BIGSUB    2        0    5.22328E+01    14.400     0.000    63.899    25.909    95.044     0.000     0.053    23.601    26.435     0.205     0.000     0.000     0.000     0.000     0.000     0.716     0.000     0.001 .00000E+00 0.000E+00 0.000E+00 0.000E+00 0.000E+00 0.000E+00
BIGSUB    3        0    5.18344E+01    14.400     0.000    63.971    25.835    95.166     0.000     0.031    21.315    24.151     0.127     0.000     0.000     0.000     0.000     0.000     0.935     0.000     0.001 .00000E+00 0.000E+00 0.000E+00 0.000E+00 0.000E+00 0.000E+00
BIGSUB    1        0    6.17227E+01     8.300     0.000    56.917    16.197    87.494     0.000     0.000     7.771     9.373     0.000     0.000     0.000     0.000     0.000     0.000     0.089     0.000     0.000 .00000E+00 0.000E+00 0.000E+00 0.000E+00 0.000E+00 0.000E+00
BIGSUB    2        0    6.22328E+01     8.300     0.000    57.133    16.209    87.061     0.000     0.000     8.130     9.758     0.000     0.000     0.000     0.000     0.000     0.000     0.068     0.000     0.000 .00000E+00 0.000E+00 0.000E+00 0.000E+00 0.000E+00 0.000E+00
BIGSUB    3        0    6.18344E+01     8.300     0.000    57.195    16.187    87.184     0.000     0.000     6.973     8.474     0.000     0.000     0.000     0.000     0.000     0.000     0.088     0.000     0.000 .00000E+00 0.000E+00 0.000E+00 0.000E+00 0.000E+00 0.000E+00
BIGSUB    1        0    7.17227E+01    10.300     0.000    54.493    17.384    80.045     0.000     0.000     0.608     2.167     0.000     0.000     0.000     0.000     0.000     0.000     0.373     0.001     0.000 .00000E+00 0.000E+00 0.000E+00 0.000E+00 0.000E+00 0.000E+00
BIGSUB    2        0    7.22328E+01    10.300     0.000    54.697    16.537    80.551     0.000     0.000     0.847     2.347     0.000     0.000     0.000     0.000     0.000     0.000     0.279     0.000     0.000 .00000E+00 0.000E+00 0.000E+00 0.000E+00 0.000E+00 0.000E+00
BIGSUB    3        0    7.18344E+01    10.300     0.000    54.756    17.144    79.979     0.000     0.000     0.470     1.945     0.000     0.000     0.000     0.000     0.000     0.000     0.368     0.001     0.000 .00000E+00 0.000E+00 0.000E+00 0.000E+00 0.000E+00 0.000E+00
BIGSUB    1        0    8.17227E+01    14.900     0.000    64.332    17.771    76.070     0.000     0.000     0.011     1.957     0.000     0.000     0.000     0.000     0.000     0.000     1.064     0.002     0.000 .00000E+00 0.000E+00 0.000E+00 0.000E+00 0.000E+00 0.000E+00
BIGSUB    2        0    8.22328E+01    14.900     0.000    64.554    17.047    77.559     0.000     0.000     0.020     1.744     0.001     0.000     0.000     0.000     0.000     0.000     0.815     0.002     0.000 .00000E+00 0.000E+00 0.000E+00 0.000E+00 0.000E+00 0.000E+00
BIGSUB    3        0    8.18344E+01    14.900     0.000    64.619    17.546    76.232     0.000     0.000     0.004     1.889     0.000     0.000     0.000     0.000     0.000     0.000     1.062     0.002     0.000 .00000E+00 0.000E+00 0.000E+00 0.000E+00 0.000E+00 0.000E+00
BIGSUB    1        0    9.17227E+01    23.500     0.000    49.175    18.426    78.795     0.000     0.037     0.000     2.901     0.178     0.000     0.000     0.000     0.000     0.000     2.231     0.002     0.000 .00000E+00 0.000E+00 0.000E+00 0.000E+00 0.000E+00 0.000E+00
BIGSUB    2        0    9.22328E+01    23.500     0.000    49.322    17.976    81.191     0.000     0.133     0.000     2.484     0.517     0.000     0.000     0.000     0.000     0.000     1.698     0.002     0.000 .00000E+00 0.000E+00 0.000E+00 0.000E+00 0.000E+00 0.000E+00
BIGSUB    3        0    9.18344E+01    23.500     0.000    49.364    18.261    79.090     0.000     0.076     0.000     2.892     0.317     0.000     0.000     0.000     0.000     0.000     2.225     0.002     0.000 .00000E+00 0.000E+00 0.000E+00 0.000E+00 0.000E+00 0.000E+00
BIGSUB    1        0   10.17227E+01    34.400     0.000    28.013    18.170    89.894     0.000     0.515     0.000     5.686     1.315     0.000     0.000     0.000     0.000     0.000     4.687     0.001     0.000 .00000E+00 0.000E+00 0.000E+00 0.000E+00 0.000E+00 0.000E+00
BIGSUB    2        0   10.22328E+01    34.400     0.000    28.097    18.480    92.044     0.000     1.743     0.000     5.619     3.746     0.001     0.000     0.001     0.000     0.000     3.376     0.001     0.000 .00000E+00 0.000E+00 0.000E+00 0.000E+00 0.000E+00 0.000E+00
BIGSUB    3        0   10.18344E+01    34.400     0.000    28.121    18.052    89.903     0.000     1.007     0.000     6.057     2.306     0.000     0.000     0.000     0.000     0.000     4.598     0.001     0.000 .00000E+00 0.000E+00 0.000E+00 0.000E+00 0.000E+00 0.000E+00
BIGSUB    1        0   11.17227E+01    82.700     0.000    20.089    18.924   119.996     9.418     2.314     0.078    23.352     7.382     0.009     0.001     0.000     0.000     0.001    20.612     0.060     0.000 .00000E+00 0.000E+00 0.000E+00 0.000E+00 0.000E+00 0.000E+00
BIGSUB    2        0   11.22328E+01    82.700     0.000    20.098    19.042   120.008    13.278     6.135     0.151    21.902    15.851     0.025     0.003     0.001     0.000     0.003    15.255     0.048     0.000 .00000E+00 0.000E+00 0.000E+00 0.000E+00 0.000E+00 0.000E+00
BIGSUB    3        0   11.18344E+01    82.700     0.000    20.101    18.894   119.988     8.330     3.826     0.031    24.422    11.045     0.008     0.001     0.001     0.000     0.001    20.241     0.059     0.000 .00000E+00 0.000E+00 0.000E+00 0.000E+00 0.000E+00 0.000E+00
BIGSUB    1        0   12.17227E+01   113.700     0.000    14.491    14.356   119.922    51.064     6.606    11.165    60.415    20.024     0.035     0.004     0.000     0.000     0.004    42.183     0.146     0.003 .00000E+00 0.000E+00 0.000E+00 0.000E+00 0.000E+00 0.000E+00
BIGSUB    2        0   12.22328E+01   113.700     0.000    14.485    14.315   119.948    55.225    14.158    13.516    58.574    32.074     0.086     0.011     0.001     0.000     0.009    30.394     0.115     0.003 .00000E+00 0.000E+00 0.000E+00 0.000E+00 0.000E+00 0.000E+00
BIGSUB    3        0   12.18344E+01   113.700     0.000    14.483    14.338   119.922    48.932     9.689    10.370    61.727    26.024     0.032     0.004     0.000     0.000     0.004    41.237     0.147     0.002 .00000E+00 0.000E+00 0.000E+00 0.000E+00 0.000E+00 0.000E+00
BIGSUB    1        0 1987.17227E+01   919.400     0.000   470.559   248.565   119.922   283.643   129.234   269.675   675.620   401.453    29.197     3.572     0.002     0.003     2.861   261.656     0.490     0.069 .00000E+00 0.000E+00 0.000E+00 0.000E+00 0.000E+00 0.000E+00
BIGSUB    2        0 1987.22328E+01   919.400     0.000   471.941   247.027   119.948   297.372   198.579   279.908   673.024   457.403    27.657     3.385     0.005     0.004     2.707   178.981     0.386     0.076 .00000E+00 0.000E+00 0.000E+00 0.000E+00 0.000E+00 0.000E+00
BIGSUB    3        0 1987.18344E+01   919.400     0.000   472.343   247.791   119.922   265.827   157.375   251.406   674.678   452.856    29.994     3.670     0.004     0.002     2.942   251.850     0.493     0.064 .00000E+00 0.000E+00 0.000E+00 0.000E+00 0.000E+00 0.000E+00
BIGSUB    1        0    1.17227E+01   186.600     0.000    16.678    16.677   120.019    83.233    19.527    31.255   116.148    55.623    13.348     1.633     0.000     0.001     1.297    64.530     0.155     0.010 .00000E+00 0.000E+00 0.000E+00 0.000E+00 0.000E+00 0.000E+00
BIGSUB    2        0    1.22328E+01   186.600     0.000    16.705    16.704   120.035    87.207    36.360    34.454   116.250    79.206    16.674     2.040     0.001     0.001     1.625    44.519     0.118     0.012 .00000E+00 0.000E+00 0.000E+00 0.000E+00 0.000E+00 0.000E+00
BIGSUB    3        0    1.18344E+01   186.600     0.000    16.712    16.711   120.008    78.698    26.410    29.634   119.108    68.625    15.540     1.901     0.001     0.001     1.512    62.276     0.155     0.009 .00000E+00 0.000E+00 0.000E+00 0.000E+00 0.000E+00 0.000E+00
BIGSUB    1        0    2.17227E+01   190.600     0.000    25.867    25.533   120.003    64.200    47.806    56.117   161.448   206.386    15.269     1.867     0.000     0.001     1.501    56.101     0.084     0.023 .00000E+00 0.000E+00 0.000E+00 0.000E+00 0.000E+00 0.000E+00
BIGSUB    2        0    2.22328E+01   190.600     0.000    25.908    25.578   120.006    64.437    66.257    58.908   163.128   196.392     9.812     1.200     0.001     0.001     0.968    36.445     0.062     0.025 .00000E+00 0.000E+00 0.000E+00 0.000E+00 0.000E+00 0.000E+00
BIGSUB    3        0    2.18344E+01   190.600     0.000    25.919    25.583   120.001    59.404    55.301    52.845   162.710   218.377    13.908     1.701     0.000     0.001     1.371    53.224     0.083     0.021 .00000E+00 0.000E+00 0.000E+00 0.000E+00 0.000E+00 0.000E+00
BIGSUB    1        0    3.17227E+01   149.200     0.000    37.359    36.128   120.018    48.859    21.357    59.026   122.403    64.496     0.308     0.038     0.000     0.000     0.038    40.065     0.055     0.016 .00000E+00 0.000E+00 0.000E+00 0.000E+00 0.000E+00 0.000E+00
BIGSUB    2        0    3.22328E+01   149.200     0.000    37.482    36.249   120.034    50.509    33.302    61.166   123.761    78.022     0.729     0.089     0.001     0.000     0.076    27.237     0.043     0.017 .00000E+00 0.000E+00 0.000E+00 0.000E+00 0.000E+00 0.000E+00
BIGSUB    3        0    3.18344E+01   149.200     0.000    37.518    36.283   120.008    45.575    26.323    55.317   121.931    74.455     0.330     0.041     0.001     0.000     0.040    38.454     0.055     0.015 .00000E+00 0.000E+00 0.000E+00 0.000E+00 0.000E+00 0.000E+00
BIGSUB    1        0    4.17227E+01    87.100     0.000    39.897    37.747   118.367    22.760     5.947    47.879    81.167    16.285     0.049     0.006     0.000     0.000     0.006    25.308     0.032     0.009 .00000E+00 0.000E+00 0.000E+00 0.000E+00 0.000E+00 0.000E+00
BIGSUB    2        0    4.22328E+01    87.100     0.000    40.055    37.890   118.364    24.141    11.285    49.570    80.516    24.805     0.127     0.015     0.001     0.000     0.013    17.532     0.025     0.010 .00000E+00 0.000E+00 0.000E+00 0.000E+00 0.000E+00 0.000E+00
BIGSUB    3        0    4.18344E+01    87.100     0.000    40.101    37.924   118.361    21.191     8.029    44.750    79.087    20.697     0.046     0.006     0.000     0.000     0.005    24.401     0.032     0.009 .00000E+00 0.000E+00 0.000E+00 0.000E+00 0.000E+00 0.000E+00
BIGSUB    1        0    5.17227E+01    26.400     0.000    63.496    36.552   105.432     0.000     0.128    31.974    36.807     0.507     0.000     0.000     0.000     0.000     0.000     2.757     0.001     0.003 .00000E+00 0.000E+00 0.000E+00 0.000E+00 0.000E+00 0.000E+00
BIGSUB    2        0    5.22328E+01    26.400     0.000    63.745    36.733   105.585     0.000     0.457    33.259    37.818     1.460     0.000     0.000     0.000     0.000     0.000     2.065     0.001     0.004 .00000E+00 0.000E+00 0.000E+00 0.000E+00 0.000E+00 0.000E+00
BIGSUB    3        0    5.18344E+01    26.400     0.000    63.818    36.579   105.285     0.000     0.262    29.826    34.647     0.902     0.000     0.000     0.000     0.000     0.000     2.734     0.001     0.003 .00000E+00 0.000E+00 0.000E+00 0.000E+00 0.000E+00 0.000E+00
BIGSUB    1        0    6.17227E+01     6.400     0.000    58.195    18.614    93.100     0.000     0.000    14.672    16.451     0.000     0.000     0.000     0.000     0.000     0.000     0.236     0.000     0.001 .00000E+00 0.000E+00 0.000E+00 0.000E+00 0.000E+00 0.000E+00
BIGSUB    2        0    6.22328E+01     6.400     0.000    58.424    18.681    93.213     0.000     0.000    15.068    16.862     0.000     0.000     0.000     0.000     0.000     0.000     0.180     0.000     0.001 .00000E+00 0.000E+00 0.000E+00 0.000E+00 0.000E+00 0.000E+00
BIGSUB    3        0    6.18344E+01     6.400     0.000    58.491    18.575    92.992     0.000     0.000    13.544    15.224     0.000     0.000     0.000     0.000     0.000     0.000     0.236     0.000     0.001 .00000E+00 0.000E+00 0.000E+00 0.000E+00 0.000E+00 0.000E+00
BIGSUB    1        0    7.17227E+01     5.900     0.000    68.009    17.953    80.924     0.000     0.000     2.937     4.292     0.000     0.000     0.000     0.000     0.000     0.000     0.121     0.000     0.000 .00000E+00 0.000E+00 0.000E+00 0.000E+00 0.000E+00 0.000E+00
BIGSUB    2        0    7.22328E+01     5.900     0.000    68.225    17.056    81.965     0.000     0.000     3.387     4.769     0.000     0.000     0.000     0.000     0.000     0.000     0.091     0.000     0.000 .00000E+00 0.000E+00 0.000E+00 0.000E+00 0.000E+00 0.000E+00
BIGSUB    3        0    7.18344E+01     5.900     0.000    68.288    17.698    81.071     0.000     0.000     2.230     3.505     0.000     0.000     0.000     0.000     0.000     0.000     0.120     0.000     0.000 .00000E+00 0.000E+00 0.000E+00 0.000E+00 0.000E+00 0.000E+00
BIGSUB    1        0    8.17227E+01     9.600     0.000    55.020    12.786    77.122     0.000     0.000     0.073     1.575     0.000     0.000     0.000     0.000     0.000     0.000     0.574     0.001     0.000 .00000E+00 0.000E+00 0.000E+00 0.000E+00 0.000E+00 0.000E+00
[...]
BIGSUB    1        0    3.17227E+01   232.700     0.000    30.414    30.315   120.056    97.357    25.312    89.179   194.479    72.118     0.124     0.016     0.000     0.000     0.014    77.445     0.071     0.031 .00000E+00 0.000E+00 0.000E+00 0.000E+00 0.000E+00 0.000E+00
BIGSUB    2        0    3.22328E+01   232.700     0.000    30.531    30.432   120.104   100.371    48.103    91.421   194.363   102.594     0.353     0.043     0.001     0.000     0.035    52.202     0.059     0.033 .00000E+00 0.000E+00 0.000E+00 0.000E+00 0.000E+00 0.000E+00
BIGSUB    3        0    3.18344E+01   232.700     0.000    30.565    30.466   120.023    91.267    34.615    83.359   194.565    88.958     0.096     0.012     0.000     0.000     0.011    74.211     0.073     0.030 .00000E+00 0.000E+00 0.000E+00 0.000E+00 0.000E+00 0.000E+00
BIGSUB    1        0    4.17227E+01    60.000     0.000    42.890    38.560   116.573    10.466     1.756    78.859   100.548     4.063     0.005     0.001     0.000     0.000     0.001    17.018     0.011     0.018 .00000E+00 0.000E+00 0.000E+00 0.000E+00 0.000E+00 0.000E+00
BIGSUB    2        0    4.22328E+01    60.000     0.000    43.051    38.716   116.705    11.354     4.262    81.053   100.350     8.176     0.013     0.002     0.000     0.000     0.001    12.022     0.010     0.019 .00000E+00 0.000E+00 0.000E+00 0.000E+00 0.000E+00 0.000E+00
BIGSUB    3        0    4.18344E+01    60.000     0.000    43.098    38.728   116.470     9.695     2.755    73.760    95.746     5.897     0.003     0.000     0.000     0.000     0.000    16.504     0.012     0.017 .00000E+00 0.000E+00 0.000E+00 0.000E+00 0.000E+00 0.000E+00
BIGSUB    1        0    5.17227E+01    16.700     0.000    43.164    25.627   106.384     0.000     0.039    47.346    51.385     0.155     0.000     0.000     0.000     0.000     0.000     1.220     0.000     0.005 .00000E+00 0.000E+00 0.000E+00 0.000E+00 0.000E+00 0.000E+00
BIGSUB    2        0    5.22328E+01    16.700     0.000    43.363    25.776   106.565     0.000     0.138    48.826    52.760     0.450     0.000     0.000     0.000     0.000     0.000     0.922     0.000     0.005 .00000E+00 0.000E+00 0.000E+00 0.000E+00 0.000E+00 0.000E+00
BIGSUB    3        0    5.18344E+01    16.700     0.000    43.421    25.650   106.225     0.000     0.079    44.255    48.147     0.277     0.000     0.000     0.000     0.000     0.000     1.213     0.000     0.005 .00000E+00 0.000E+00 0.000E+00 0.000E+00 0.000E+00 0.000E+00
BIGSUB    1        0    6.17227E+01     9.300     0.000    55.012    21.141    94.312     0.000     0.000    20.981    23.520     0.000     0.000     0.000     0.000     0.000     0.000     0.350     0.000     0.001 .00000E+00 0.000E+00 0.000E+00 0.000E+00 0.000E+00 0.000E+00
BIGSUB    2        0    6.22328E+01     9.300     0.000    55.227    21.263    94.425     0.000     0.000    21.666    24.198     0.000     0.000     0.000     0.000     0.000     0.000     0.270     0.000     0.001 .00000E+00 0.000E+00 0.000E+00 0.000E+00 0.000E+00 0.000E+00
BIGSUB    3        0    6.18344E+01     9.300     0.000    55.290    21.136    94.159     0.000     0.000    19.600    21.997     0.000     0.000     0.000     0.000     0.000     0.000     0.350     0.000     0.001 .00000E+00 0.000E+00 0.000E+00 0.000E+00 0.000E+00 0.000E+00
BIGSUB    1        0    7.17227E+01     4.600     0.100    70.943    14.089    84.816     0.000     0.000     6.476     8.225     0.000     0.000     0.000     0.000     0.000     0.000     0.003     0.000     0.000 .00000E+00 0.000E+00 0.000E+00 0.000E+00 0.000E+00 0.000E+00
BIGSUB    2        0    7.22328E+01     4.600     0.100    71.157    14.140    84.879     0.000     0.000     7.038     8.845     0.000     0.000     0.000     0.000     0.000     0.000     0.002     0.000     0.000 .00000E+00 0.000E+00 0.000E+00 0.000E+00 0.000E+00 0.000E+00
BIGSUB    3        0    7.18344E+01     4.600     0.100    71.220    14.078    84.674     0.000     0.000     5.793     7.429     0.000     0.000     0.000     0.000     0.000     0.000     0.003     0.000     0.000 .00000E+00 0.000E+00 0.000E+00 0.000E+00 0.000E+00 0.000E+00
BIGSUB    1        0    8.17227E+01    10.900     0.000    50.694    17.029    78.438     0.000     0.000     0.526     2.091     0.000     0.000     0.000     0.000     0.000     0.000     0.254     0.001     0.000 .00000E+00 0.000E+00 0.000E+00 0.000E+00 0.000E+00 0.000E+00
BIGSUB    2        0    8.22328E+01    10.900     0.000    50.881    16.415    79.171     0.000     0.000     0.629     2.180     0.000     0.000     0.000     0.000     0.000     0.000     0.196     0.000     0.000 .00000E+00 0.000E+00 0.000E+00 0.000E+00 0.000E+00 0.000E+00
BIGSUB    3        0    8.18344E+01    10.900     0.000    50.936    16.854    78.471     0.000     0.000     0.410     1.890     0.000     0.000     0.000     0.000     0.000     0.000     0.254     0.001     0.000 .00000E+00 0.000E+00 0.000E+00 0.000E+00 0.000E+00 0.000E+00
BIGSUB    1        0    9.17227E+01    19.000     0.000    39.714    14.916    80.622     0.000     0.009     0.011     2.635     0.036     0.000     0.000     0.000     0.000     0.000     1.669     0.002     0.000 .00000E+00 0.000E+00 0.000E+00 0.000E+00 0.000E+00 0.000E+00
BIGSUB    2        0    9.22328E+01    19.000     0.000    39.816    14.314    82.383     0.000     0.033     0.019     2.303     0.105     0.000     0.000     0.000     0.000     0.000     1.273     0.002     0.000 .00000E+00 0.000E+00 0.000E+00 0.000E+00 0.000E+00 0.000E+00
BIGSUB    3        0    9.18344E+01    19.000     0.000    39.845    14.734    80.832     0.000     0.019     0.004     2.573     0.064     0.000     0.000     0.000     0.000     0.000     1.665     0.002     0.000 .00000E+00 0.000E+00 0.000E+00 0.000E+00 0.000E+00 0.000E+00
BIGSUB    1        0   10.17227E+01    71.100     0.000    28.208    23.530   113.387     0.619     0.829     0.008    14.417     2.630     0.001     0.000     0.000     0.000     0.000    12.855     0.013     0.000 .00000E+00 0.000E+00 0.000E+00 0.000E+00 0.000E+00 0.000E+00
BIGSUB    2        0   10.22328E+01    71.100     0.000    28.260    23.945   115.706     1.191     2.608     0.015    13.042     6.778     0.003     0.000     0.001     0.000     0.000     9.669     0.011     0.000 .00000E+00 0.000E+00 0.000E+00 0.000E+00 0.000E+00 0.000E+00
BIGSUB    3        0   10.18344E+01    71.100     0.000    28.275    23.543   113.393     0.245     1.535     0.003    14.942     4.354     0.001     0.000     0.000     0.000     0.000    12.726     0.013     0.000 .00000E+00 0.000E+00 0.000E+00 0.000E+00 0.000E+00 0.000E+00
BIGSUB    1        0   11.17227E+01    61.400     0.000    21.149    19.920   119.994    14.188     3.557     2.575    23.654    12.074     0.011     0.001     0.001     0.000     0.001    16.956     0.048     0.000 .00000E+00 0.000E+00 0.000E+00 0.000E+00 0.000E+00 0.000E+00
BIGSUB    2        0   11.22328E+01    61.400     0.000    21.163    19.876   120.010    17.375     7.619     3.580    23.861    21.309     0.032     0.004     0.001     0.000     0.003    12.063     0.037     0.000 .00000E+00 0.000E+00 0.000E+00 0.000E+00 0.000E+00 0.000E+00
BIGSUB    3        0   11.18344E+01    61.400     0.000    21.166    19.928   119.991    13.054     5.192     2.247    24.411    16.405     0.008     0.001     0.001     0.000     0.001    16.446     0.048     0.000 .00000E+00 0.000E+00 0.000E+00 0.000E+00 0.000E+00 0.000E+00
BIGSUB    1        0   12.17227E+01    38.400     0.000    28.431    21.294   117.520     8.685     0.785     6.208    18.318     3.387     0.001     0.000     0.000     0.000     0.000    10.791     0.030     0.000 .00000E+00 0.000E+00 0.000E+00 0.000E+00 0.000E+00 0.000E+00
BIGSUB    2        0   12.22328E+01    38.400     0.000    28.398    21.152   117.572     9.779     2.489     7.680    18.711     8.755     0.002     0.000     0.001     0.000     0.000     7.961     0.024     0.001 .00000E+00 0.000E+00 0.000E+00 0.000E+00 0.000E+00 0.000E+00
BIGSUB    3        0   12.18344E+01    38.400     0.000    28.389    21.231   117.528     8.219     1.480     5.660    18.252     5.655     0.001     0.000     0.000     0.000     0.000    10.618     0.030     0.000 .00000E+00 0.000E+00 0.000E+00 0.000E+00 0.000E+00 0.000E+00
BIGSUB    1        0 1989.17227E+01  1055.600     0.100   448.108   263.912   117.520   341.307   148.147   352.873   826.706   520.734    29.162     3.567     0.003     0.003     2.874   307.060     0.467     0.099 .00000E+00 0.000E+00 0.000E+00 0.000E+00 0.000E+00 0.000E+00
BIGSUB    2        0 1989.22328E+01  1055.600     0.100   449.395   263.576   117.572   353.742   234.550   367.740   829.516   599.401    28.445     3.479     0.006     0.004     2.797   207.852     0.365     0.107 .00000E+00 0.000E+00 0.000E+00 0.000E+00 0.000E+00 0.000E+00
BIGSUB    3        0 1989.18344E+01  1055.600     0.100   449.769   263.912   117.528   318.515   183.313   329.474   824.809   589.716    29.979     3.667     0.004     0.002     2.957   294.602     0.470     0.093 .00000E+00 0.000E+00 0.000E+00 0.000E+00 0.000E+00 0.000E+00
BIGSUB    1        0    1.17227E+01   138.700     0.000    16.347    16.295   120.019    61.850     7.072    14.516    71.375    17.276     5.619     0.687     0.000     0.000     0.546    49.189     0.150     0.003 .00000E+00 0.000E+00 0.000E+00 0.000E+00 0.000E+00 0.000E+00
BIGSUB    2        0    1.22328E+01   138.700     0.000    16.372    16.320   120.035    66.678    16.674    16.312    68.844    34.593    10.622     1.299     0.001     0.001     1.034    35.199     0.117     0.003 .00000E+00 0.000E+00 0.000E+00 0.000E+00 0.000E+00 0.000E+00
BIGSUB    3        0    1.18344E+01   138.700     0.000    16.379    16.327   120.008    59.139    10.991    13.689    73.218    25.076     7.906     0.967     0.001     0.000     0.769    47.979     0.151     0.002 .00000E+00 0.000E+00 0.000E+00 0.000E+00 0.000E+00 0.000E+00
BIGSUB    1        0    2.17227E+01    73.200     0.000    19.244    17.380   120.013    27.117     5.079    27.984    57.029    20.998     3.218     0.393     0.000     0.000     0.315    23.130     0.053     0.007 .00000E+00 0.000E+00 0.000E+00 0.000E+00 0.000E+00 0.000E+00
BIGSUB    2        0    2.22328E+01    73.200     0.000    19.271    17.407   120.024    28.667    10.651    30.401    58.223    33.369     3.393     0.415     0.001     0.000     0.337    16.258     0.041     0.008 .00000E+00 0.000E+00 0.000E+00 0.000E+00 0.000E+00 0.000E+00
BIGSUB    3        0    2.18344E+01    73.200     0.000    19.279    17.413   120.005    25.570     7.375    26.640    57.238    27.214     3.520     0.430     0.001     0.000     0.346    22.434     0.053     0.006 .00000E+00 0.000E+00 0.000E+00 0.000E+00 0.000E+00 0.000E+00
BIGSUB    1        0    3.17227E+01    67.900     0.000    37.862    32.858   116.719    17.172     3.752    31.695    56.129    11.110     1.419     0.173     0.000     0.000     0.139    19.557     0.038     0.006 .00000E+00 0.000E+00 0.000E+00 0.000E+00 0.000E+00 0.000E+00
BIGSUB    2        0    3.22328E+01    67.900     0.000    37.955    32.941   116.800    18.250     7.743    34.011    56.638    19.191     1.268     0.155     0.001     0.000     0.127    13.666     0.029     0.007 .00000E+00 0.000E+00 0.000E+00 0.000E+00 0.000E+00 0.000E+00
BIGSUB    3        0    3.18344E+01    67.900     0.000    37.982    32.954   116.674    16.044     5.358    30.054    55.392    14.968     1.465     0.179     0.001     0.000     0.144    18.918     0.038     0.006 .00000E+00 0.000E+00 0.000E+00 0.000E+00 0.000E+00 0.000E+00
BIGSUB    1        0    4.17227E+01    49.800     0.000    45.497    34.853   108.864     8.809     3.355    22.567    38.016    16.537     2.123     0.259     0.000     0.000     0.208    10.998     0.019     0.003 .00000E+00 0.000E+00 0.000E+00 0.000E+00 0.000E+00 0.000E+00
BIGSUB    2        0    4.22328E+01    49.800     0.000    45.613    34.962   108.846     9.382     6.021    24.143    39.003    21.814     1.280     0.157     0.001     0.000     0.127     7.656     0.014     0.003 .00000E+00 0.000E+00 0.000E+00 0.000E+00 0.000E+00 0.000E+00
BIGSUB    3        0    4.18344E+01    49.800     0.000    45.646    34.934   108.841     8.002     4.442    21.258    37.345    19.762     1.958     0.239     0.001     0.000     0.192    10.611     0.019     0.003 .00000E+00 0.000E+00 0.000E+00 0.000E+00 0.000E+00 0.000E+00
BIGSUB    1        0    5.17227E+01    27.000     0.000    52.012    28.426   104.475     0.000     0.176    14.071    17.953     0.900     0.009     0.001     0.000     0.000     0.001     2.701     0.001     0.001 .00000E+00 0.000E+00 0.000E+00 0.000E+00 0.000E+00 0.000E+00
BIGSUB    2        0    5.22328E+01    27.000     0.000    52.214    28.556   104.595     0.000     0.628    15.094    18.805     2.583     0.045     0.006     0.001     0.000     0.005     2.002     0.001     0.001 .00000E+00 0.000E+00 0.000E+00 0.000E+00 0.000E+00 0.000E+00
BIGSUB    3        0    5.18344E+01    27.000     0.000    52.273    28.417   104.305     0.000     0.360    13.130    17.108     1.600     0.024     0.003     0.001     0.000     0.002     2.672     0.001     0.001 .00000E+00 0.000E+00 0.000E+00 0.000E+00 0.000E+00 0.000E+00
BIGSUB    1        0    6.17227E+01    21.500     0.000    41.392    21.721   102.279     0.000     0.076     4.144     6.866     0.344     0.004     0.000     0.000     0.000     0.000     1.865     0.001     0.000 .00000E+00 0.000E+00 0.000E+00 0.000E+00 0.000E+00 0.000E+00
BIGSUB    2        0    6.22328E+01    21.500     0.000    41.574    21.879   102.516     0.000     0.272     4.595     7.111     0.991     0.018     0.002     0.000     0.000     0.002     1.403     0.001     0.000 .00000E+00 0.000E+00 0.000E+00 0.000E+00 0.000E+00 0.000E+00
BIGSUB    3        0    6.18344E+01    21.500     0.000    41.627    21.703   102.060     0.000     0.155     3.381     6.124     0.612     0.010     0.001     0.000     0.000     0.001     1.852     0.001     0.000 .00000E+00 0.000E+00 0.000E+00 0.000E+00 0.000E+00 0.000E+00
BIGSUB    1        0    7.17227E+01     8.100     0.000    61.213    22.386    87.982     0.000     0.000     0.178     0.933     0.000     0.000     0.000     0.000     0.000     0.000     0.135     0.000     0.000 .00000E+00 0.000E+00 0.000E+00 0.000E+00 0.000E+00 0.000E+00
BIGSUB    2        0    7.22328E+01     8.100     0.000    61.459    21.787    88.823     0.000     0.000     0.314     1.081     0.000     0.000     0.000     0.000     0.000     0.000     0.100     0.000     0.000 .00000E+00 0.000E+00 0.000E+00 0.000E+00 0.000E+00 0.000E+00
BIGSUB    3        0    7.18344E+01     8.100     0.000    61.530    22.134    88.017     0.000     0.000     0.121     0.838     0.000     0.000     0.000     0.000     0.000     0.000     0.133     0.000     0.000 .00000E+00 0.000E+00 0.000E+00 0.000E+00 0.000E+00 0.000E+00
BIGSUB    1        0    8.17227E+01    12.100     0.000    45.403    15.434    83.900     0.000     0.007     0.004     1.173     0.029     0.000     0.000     0.000     0.000     0.000     0.697     0.001     0.000 .00000E+00 0.000E+00 0.000E+00 0.000E+00 0.000E+00 0.000E+00
BIGSUB    2        0    8.22328E+01    12.100     0.000    45.567    15.164    85.169     0.000     0.023     0.008     1.063     0.084     0.001     0.000     0.000     0.000     0.000     0.532     0.001     0.000 .00000E+00 0.000E+00 0.000E+00 0.000E+00 0.000E+00 0.000E+00
BIGSUB    3        0    8.18344E+01    12.100     0.000    45.615    15.334    84.029     0.000     0.013     0.002     1.148     0.052     0.001     0.000     0.000     0.000     0.000     0.696     0.001     0.000 .00000E+00 0.000E+00 0.000E+00 0.000E+00 0.000E+00 0.000E+00
BIGSUB    1        0    9.17227E+01    19.600     0.000    38.381    17.973    83.946     0.000     0.001     0.000     1.901     0.003     0.000     0.000     0.000     0.000     0.000     1.565     0.001     0.000 .00000E+00 0.000E+00 0.000E+00 0.000E+00 0.000E+00 0.000E+00
BIGSUB    2        0    9.22328E+01    19.600     0.000    38.515    18.067    85.493     0.000     0.004     0.000     1.557     0.008     0.000     0.000     0.000     0.000     0.000     1.194     0.001     0.000 .00000E+00 0.000E+00 0.000E+00 0.000E+00 0.000E+00 0.000E+00
BIGSUB    3        0    9.18344E+01    19.600     0.000    38.554    17.970    84.083     0.000     0.002     0.000     1.876     0.005     0.000     0.000     0.000     0.000     0.000     1.559     0.001     0.000 .00000E+00 0.000E+00 0.000E+00 0.000E+00 0.000E+00 0.000E+00
BIGSUB    1        0   10.17227E+01    58.400     0.000    29.687    20.545   110.616     0.370     0.577     0.000    10.509     1.838     0.039     0.005     0.000     0.000     0.004     9.675     0.010     0.000 .00000E+00 0.000E+00 0.000E+00 0.000E+00 0.000E+00 0.000E+00
BIGSUB    2        0   10.22328E+01    58.400     0.000    29.789    21.008   112.347     0.706     2.000     0.000     9.668     5.178     0.124     0.015     0.001     0.000     0.013     7.392     0.010     0.000 .00000E+00 0.000E+00 0.000E+00 0.000E+00 0.000E+00 0.000E+00
BIGSUB    3        0   10.18344E+01    58.400     0.000    29.819    20.618   110.408     0.142     1.147     0.000    10.994     3.209     0.074     0.009     0.000     0.000     0.008     9.607     0.011     0.000 .00000E+00 0.000E+00 0.000E+00 0.000E+00 0.000E+00 0.000E+00
BIGSUB    1        0   11.17227E+01     2.400     0.000     1.243     0.857   111.919     0.000     0.000     0.000     0.518     0.000     0.000     0.000     0.000     0.000     0.000     0.504     0.001     0.000 .00000E+00 0.000E+00 0.000E+00 0.000E+00 0.000E+00 0.000E+00
BIGSUB    2        0   11.22328E+01     2.400     0.000     1.249     0.864   113.699     0.000     0.001     0.000     0.407     0.000     0.000     0.000     0.000     0.000     0.000     0.391     0.001     0.000 .00000E+00 0.000E+00 0.000E+00 0.000E+00 0.000E+00 0.000E+00
BIGSUB    3        0   11.18344E+01     2.400     0.000     1.251     0.862   111.706     0.000     0.000     0.000     0.516     0.000     0.000     0.000     0.000     0.000     0.000     0.502     0.001     0.000 .00000E+00 0.000E+00 0.000E+00 0.000E+00 0.000E+00 0.000E+00
BIGSUB    1        0 1990.17227E+01   478.700     0.000   388.279   228.726   111.919   115.317    20.095   115.159   262.402    69.037    12.430     1.520     0.002     0.001     1.213   120.017     0.276     0.020 .00000E+00 0.000E+00 0.000E+00 0.000E+00 0.000E+00 0.000E+00
BIGSUB    2        0 1990.22328E+01   478.700     0.000   389.578   228.954   113.699   123.683    44.017   124.877   262.398   117.811    16.754     2.048     0.006     0.001     1.645    85.793     0.215     0.023 .00000E+00 0.000E+00 0.000E+00 0.000E+00 0.000E+00 0.000E+00
BIGSUB    3        0 1990.18344E+01   478.700     0.000   389.955   228.665   111.706   108.898    29.844   108.275   261.797    92.499    14.957     1.829     0.004     0.001     1.464   116.963     0.277     0.018 .00000E+00 0.000E+00 0.000E+00 0.000E+00 0.000E+00 0.000E+00
BIGSUB    1        0  9.5.17227E+01  1015.174     0.010   439.956   258.182   111.919   322.468   139.682   297.708   743.368   476.866    44.968     5.505     0.004     0.003     4.386   289.931     0.764     0.111 .00000E+00 0.000E+00 0.000E+00 0.000E+00 0.000E+00 0.000E+00
BIGSUB    2        0  9.5.22328E+01  1015.174     0.010   441.368   257.974   113.699   335.040   219.951   309.590   743.330   543.805    43.641     5.343     0.009     0.005     4.256   197.119     0.591     0.121 .00000E+00 0.000E+00 0.000E+00 0.000E+00 0.000E+00 0.000E+00
BIGSUB    3        0  9.5.18344E+01  1015.174     0.010   441.778   258.118   111.706   301.311   172.336   277.605   743.457   538.084    46.656     5.712     0.006     0.003     4.554   278.520     0.765     0.104 .00000E+00 0.000E+00 0.000E+00 0.000E+00 0.000E+00 0.000E+00
