1
    SWAT Dec 23 2016    VER 2016/Rev 664                                                                 0/ 0/   0      0: 0: 0

    General Input/Output section (file.cio):                                        
    5/31/2025 12:00:00 AM ARCGIS-SWAT interface AV                                  
                                                                                    


       RCH      GIS   MON     AREAkm2  FLOW_INcms FLOW_OUTcms     EVAPcms    TLOSScms  SED_INtons SED_OUTtons SEDCONCmg/L   ORGN_INkg  ORGN_OUTkg   ORGP_INkg  ORGP_OUTkg    NO3_INkg   NO3_OUTkg    NH4_INkg   NH4_OUTkg    NO2_INkg   NO2_OUTkg   MINP_INkg  MINP_OUTkg   CHLA_INkg  CHLA_OUTkg   CBOD_INkg  CBOD_OUTkg  DISOX_INkg DISOX_OUTkg SOLPST_INmgSOLPST_OUTmg SORPST_INmgSORPST_OUTmg  REACTPSTmg    VOLPSTmg  SETTLPSTmgRESUSP_PSTmgDIFFUSEPSTmgREACBEDPSTmg   BURYPSTmg   BED_PSTmg BACTP_OUTctBACTLP_OUTct  CMETAL#1kg  CMETAL#2kg  CMETAL#3kg     TOT Nkg     TOT Pkg NO3ConcMg/l    WTMPdegc
REACH    1        0     3  0.5330E+01  0.4106E-01  0.4103E-01  0.2533E-04  0.0000E+00  0.1613E+05  0.8102E+01  0.6953E+02  0.3779E+05  0.3765E+05  0.8234E+04  0.8187E+04  0.2715E+02  0.2381E+02  0.1828E+02  0.5482E+02  0.0000E+00  0.2762E-01  0.2909E+01  0.8718E+01  0.1113E+04  0.4745E+03  0.1031E+07  0.1001E+07  0.1639E+03  0.4874E+02  0.0000E+00  0.0000E+00  0.0000E+00  0.0000E+00  0.0000E+00  0.0000E+00  0.0000E+00  0.0000E+00  0.0000E+00  0.0000E+00  0.0000E+00  0.0000E+00  0.0000E+00  0.0000E+00  0.0000E+00  0.0000E+00  0.0000E+00  0.3773E+05  0.8196E+04  0.0000E+00  0.0000E+00
REACH    2        0     3  0.1473E+01  0.7103E-02  0.7101E-02  0.1800E-05  0.0000E+00  0.2863E+04  0.2863E+04  0.7852E+05  0.7442E+04  0.7434E+04  0.1621E+04  0.1619E+04  0.6934E+01  0.6511E+01  0.0000E+00  0.6868E+01  0.0000E+00  0.0000E+00  0.2612E+00  0.7830E+00  0.2555E+03  0.1935E+03  0.1837E+06  0.1820E+06  0.4034E+02  0.1857E+02  0.0000E+00  0.0000E+00  0.0000E+00  0.0000E+00  0.0000E+00  0.0000E+00  0.0000E+00  0.0000E+00  0.0000E+00  0.0000E+00  0.0000E+00  0.0000E+00  0.0000E+00  0.0000E+00  0.0000E+00  0.0000E+00  0.0000E+00  0.7448E+04  0.1620E+04  0.0000E+00  0.0000E+00
REACH    3        0     3  0.1377E+01  0.1201E-01  0.1200E-01  0.3886E-05  0.0000E+00  0.4765E+04  0.4765E+04  0.8206E+05  0.1135E+05  0.1134E+05  0.2474E+04  0.2469E+04  0.8070E+01  0.7444E+01  0.0000E+00  0.1141E+02  0.0000E+00  0.0000E+00  0.4222E+00  0.1266E+01  0.3856E+03  0.2825E+03  0.2990E+06  0.2958E+06  0.6726E+02  0.2720E+02  0.0000E+00  0.0000E+00  0.0000E+00  0.0000E+00  0.0000E+00  0.0000E+00  0.0000E+00  0.0000E+00  0.0000E+00  0.0000E+00  0.0000E+00  0.0000E+00  0.0000E+00  0.0000E+00  0.0000E+00  0.0000E+00  0.0000E+00  0.1135E+05  0.2471E+04  0.0000E+00  0.0000E+00
REACH    1        0     4  0.5330E+01  0.5916E-01  0.5907E-01  0.8334E-04  0.0000E+00  0.1338E+05  0.1709E+02  0.1078E+03  0.1750E+05  0.1743E+05  0.3827E+04  0.3803E+04  0.1329E+03  0.1308E+03  0.1366E+02  0.4095E+02  0.0000E+00  0.4744E-01  0.1601E+01  0.4793E+01  0.2894E+03  0.9441E+02  0.5715E+06  0.5543E+06  0.1102E+04  0.9424E+03  0.0000E+00  0.0000E+00  0.0000E+00  0.0000E+00  0.0000E+00  0.0000E+00  0.0000E+00  0.0000E+00  0.0000E+00  0.0000E+00  0.0000E+00  0.0000E+00  0.0000E+00  0.0000E+00  0.0000E+00  0.0000E+00  0.0000E+00  0.1760E+05  0.3808E+04  0.0000E+00  0.0000E+00
REACH    2        0     4  0.1473E+01  0.1628E-01  0.1628E-01  0.7509E-05  0.0000E+00  0.6952E+04  0.6952E+04  0.5303E+05  0.9931E+04  0.9921E+04  0.2170E+04  0.2167E+04  0.3917E+02  0.3874E+02  0.0000E+00  0.7310E+01  0.0000E+00  0.0000E+00  0.2951E+00  0.8843E+00  0.2535E+03  0.2063E+03  0.3322E+06  0.3296E+06  0.3328E+03  0.2193E+03  0.0000E+00  0.0000E+00  0.0000E+00  0.0000E+00  0.0000E+00  0.0000E+00  0.0000E+00  0.0000E+00  0.0000E+00  0.0000E+00  0.0000E+00  0.0000E+00  0.0000E+00  0.0000E+00  0.0000E+00  0.0000E+00  0.0000E+00  0.9967E+04  0.2168E+04  0.0000E+00  0.0000E+00
REACH    3        0     4  0.1377E+01  0.2707E-01  0.2706E-01  0.1215E-04  0.0000E+00  0.5345E+04  0.5345E+04  0.5056E+05  0.6043E+04  0.6033E+04  0.1324E+04  0.1321E+04  0.4420E+02  0.4402E+02  0.0000E+00  0.6351E+01  0.0000E+00  0.0000E+00  0.2082E+00  0.6237E+00  0.8435E+02  0.6213E+02  0.1934E+06  0.1912E+06  0.6895E+03  0.4541E+03  0.0000E+00  0.0000E+00  0.0000E+00  0.0000E+00  0.0000E+00  0.0000E+00  0.0000E+00  0.0000E+00  0.0000E+00  0.0000E+00  0.0000E+00  0.0000E+00  0.0000E+00  0.0000E+00  0.0000E+00  0.0000E+00  0.0000E+00  0.6083E+04  0.1322E+04  0.0000E+00  0.0000E+00
REACH    1        0     5  0.5330E+01  0.6248E-01  0.6236E-01  0.1248E-03  0.0000E+00  0.1793E+01  0.2053E+02  0.1228E+03  0.1496E+01  0.1487E+01  0.3295E+00  0.3269E+00  0.8208E+02  0.8192E+02  0.1270E-01  0.3803E-01  0.0000E+00  0.1131E-04  0.4303E-03  0.1263E-02  0.2132E-05  0.0000E+00  0.1196E+01  0.1159E+01  0.1960E+04  0.1964E+04  0.0000E+00  0.0000E+00  0.0000E+00  0.0000E+00  0.0000E+00  0.0000E+00  0.0000E+00  0.0000E+00  0.0000E+00  0.0000E+00  0.0000E+00  0.0000E+00  0.0000E+00  0.0000E+00  0.0000E+00  0.0000E+00  0.0000E+00  0.8344E+02  0.3281E+00  0.0000E+00  0.0000E+00
REACH    2        0     5  0.1473E+01  0.1385E-01  0.1384E-01  0.1362E-04  0.0000E+00  0.3932E-06  0.3932E-06  0.1061E-04  0.1307E-03  0.1241E-03  0.4085E-04  0.2764E-04  0.2326E+02  0.2324E+02  0.0000E+00  0.4571E-02  0.0000E+00  0.0000E+00  0.7016E-05  0.0000E+00  0.2171E-09  0.0000E+00  0.0000E+00  0.0000E+00  0.4453E+03  0.4360E+03  0.0000E+00  0.0000E+00  0.0000E+00  0.0000E+00  0.0000E+00  0.0000E+00  0.0000E+00  0.0000E+00  0.0000E+00  0.0000E+00  0.0000E+00  0.0000E+00  0.0000E+00  0.0000E+00  0.0000E+00  0.0000E+00  0.0000E+00  0.2324E+02  0.2764E-04  0.0000E+00  0.0000E+00
REACH    3        0     5  0.1377E+01  0.3152E-01  0.3150E-01  0.1907E-04  0.0000E+00  0.1793E+01  0.1793E+01  0.2168E+02  0.1499E+01  0.1496E+01  0.3305E+00  0.3294E+00  0.3467E+02  0.3465E+02  0.0000E+00  0.8132E-02  0.0000E+00  0.0000E+00  0.1512E-03  0.4193E-03  0.2951E-05  0.2132E-05  0.1214E+01  0.1196E+01  0.9993E+03  0.9911E+03  0.0000E+00  0.0000E+00  0.0000E+00  0.0000E+00  0.0000E+00  0.0000E+00  0.0000E+00  0.0000E+00  0.0000E+00  0.0000E+00  0.0000E+00  0.0000E+00  0.0000E+00  0.0000E+00  0.0000E+00  0.0000E+00  0.0000E+00  0.3615E+02  0.3298E+00  0.0000E+00  0.0000E+00
REACH    1        0     6  0.5330E+01  0.4882E-01  0.4869E-01  0.1265E-03  0.0000E+00  0.1087E-05  0.1223E+02  0.9590E+02  0.7004E-05  0.0000E+00  0.2101E-04  0.0000E+00  0.3024E+02  0.3016E+02  0.9827E-02  0.2940E-01  0.0000E+00  0.0000E+00  0.7011E-05  0.0000E+00  0.2020E-17  0.0000E+00  0.0000E+00  0.0000E+00  0.1508E+04  0.1510E+04  0.0000E+00  0.0000E+00  0.0000E+00  0.0000E+00  0.0000E+00  0.0000E+00  0.0000E+00  0.0000E+00  0.0000E+00  0.0000E+00  0.0000E+00  0.0000E+00  0.0000E+00  0.0000E+00  0.0000E+00  0.0000E+00  0.0000E+00  0.3019E+02  0.0000E+00  0.0000E+00  0.0000E+00
REACH    2        0     6  0.1473E+01  0.1213E-01  0.1212E-01  0.1378E-04  0.0000E+00  0.3805E-06  0.3805E-06  0.1215E-04  0.4322E-05  0.0000E+00  0.1297E-04  0.0000E+00  0.8276E+01  0.8266E+01  0.0000E+00  0.4208E-02  0.0000E+00  0.0000E+00  0.4327E-05  0.0000E+00  0.6907E-18  0.0000E+00  0.0000E+00  0.0000E+00  0.3839E+03  0.3758E+03  0.0000E+00  0.0000E+00  0.0000E+00  0.0000E+00  0.0000E+00  0.0000E+00  0.0000E+00  0.0000E+00  0.0000E+00  0.0000E+00  0.0000E+00  0.0000E+00  0.0000E+00  0.0000E+00  0.0000E+00  0.0000E+00  0.0000E+00  0.8271E+01  0.0000E+00  0.0000E+00  0.0000E+00
REACH    3        0     6  0.1377E+01  0.2167E-01  0.2165E-01  0.1878E-04  0.0000E+00  0.4506E-06  0.4506E-06  0.8250E-05  0.4009E-05  0.0000E+00  0.1202E-04  0.0000E+00  0.1353E+02  0.1352E+02  0.0000E+00  0.5619E-02  0.0000E+00  0.0000E+00  0.4066E-05  0.0000E+00  0.4210E-17  0.0000E+00  0.0000E+00  0.0000E+00  0.6765E+03  0.6715E+03  0.0000E+00  0.0000E+00  0.0000E+00  0.0000E+00  0.0000E+00  0.0000E+00  0.0000E+00  0.0000E+00  0.0000E+00  0.0000E+00  0.0000E+00  0.0000E+00  0.0000E+00  0.0000E+00  0.0000E+00  0.0000E+00  0.0000E+00  0.1352E+02  0.0000E+00  0.0000E+00  0.0000E+00
REACH    1        0     7  0.5330E+01  0.3268E-01  0.3252E-01  0.1614E-03  0.0000E+00  0.1124E-05  0.5678E+01  0.6421E+02  0.7237E-05  0.0000E+00  0.2171E-04  0.0000E+00  0.1094E+02  0.1089E+02  0.9705E-02  0.2897E-01  0.0000E+00  0.4414E-04  0.7245E-05  0.0000E+00  0.3342E-17  0.0000E+00  0.0000E+00  0.0000E+00  0.1056E+04  0.1056E+04  0.0000E+00  0.0000E+00  0.0000E+00  0.0000E+00  0.0000E+00  0.0000E+00  0.0000E+00  0.0000E+00  0.0000E+00  0.0000E+00  0.0000E+00  0.0000E+00  0.0000E+00  0.0000E+00  0.0000E+00  0.0000E+00  0.0000E+00  0.1092E+02  0.0000E+00  0.0000E+00  0.0000E+00
REACH    2        0     7  0.1473E+01  0.9631E-02  0.9614E-02  0.1696E-04  0.0000E+00  0.3932E-06  0.3932E-06  0.1535E-04  0.4466E-05  0.0000E+00  0.1340E-04  0.0000E+00  0.3099E+01  0.3093E+01  0.0000E+00  0.4132E-02  0.0000E+00  0.0000E+00  0.4471E-05  0.0000E+00  0.1142E-17  0.0000E+00  0.0000E+00  0.0000E+00  0.3190E+03  0.3121E+03  0.0000E+00  0.0000E+00  0.0000E+00  0.0000E+00  0.0000E+00  0.0000E+00  0.0000E+00  0.0000E+00  0.0000E+00  0.0000E+00  0.0000E+00  0.0000E+00  0.0000E+00  0.0000E+00  0.0000E+00  0.0000E+00  0.0000E+00  0.3098E+01  0.0000E+00  0.0000E+00  0.0000E+00
REACH    3        0     7  0.1377E+01  0.1111E-01  0.1108E-01  0.2356E-04  0.0000E+00  0.4657E-06  0.4657E-06  0.1646E-04  0.4139E-05  0.0000E+00  0.1242E-04  0.0000E+00  0.4698E+01  0.4688E+01  0.0000E+00  0.5572E-02  0.0000E+00  0.0000E+00  0.4143E-05  0.0000E+00  0.2702E-17  0.0000E+00  0.0000E+00  0.0000E+00  0.3632E+03  0.3601E+03  0.0000E+00  0.0000E+00  0.0000E+00  0.0000E+00  0.0000E+00  0.0000E+00  0.0000E+00  0.0000E+00  0.0000E+00  0.0000E+00  0.0000E+00  0.0000E+00  0.0000E+00  0.0000E+00  0.0000E+00  0.0000E+00  0.0000E+00  0.4694E+01  0.0000E+00  0.0000E+00  0.0000E+00
REACH    1        0     8  0.5330E+01  0.2335E-01  0.2322E-01  0.1247E-03  0.0000E+00  0.2981E+02  0.2857E+01  0.4587E+02  0.1953E+02  0.1928E+02  0.4306E+01  0.4228E+01  0.6519E+01  0.6484E+01  0.4109E-01  0.1228E+00  0.0000E+00  0.5208E-03  0.1924E-02  0.5729E-02  0.1499E-03  0.0000E+00  0.9548E+02  0.8808E+02  0.7181E+03  0.6943E+03  0.0000E+00  0.0000E+00  0.0000E+00  0.0000E+00  0.0000E+00  0.0000E+00  0.0000E+00  0.0000E+00  0.0000E+00  0.0000E+00  0.0000E+00  0.0000E+00  0.0000E+00  0.0000E+00  0.0000E+00  0.0000E+00  0.0000E+00  0.2588E+02  0.4234E+01  0.0000E+00  0.0000E+00
REACH    2        0     8  0.1473E+01  0.7405E-02  0.7392E-02  0.1314E-04  0.0000E+00  0.3932E-06  0.3932E-06  0.1998E-04  0.4466E-05  0.0000E+00  0.1340E-04  0.0000E+00  0.1130E+01  0.1128E+01  0.0000E+00  0.4335E-02  0.0000E+00  0.0000E+00  0.4471E-05  0.0000E+00  0.1940E-17  0.0000E+00  0.0000E+00  0.0000E+00  0.2409E+03  0.2356E+03  0.0000E+00  0.0000E+00  0.0000E+00  0.0000E+00  0.0000E+00  0.0000E+00  0.0000E+00  0.0000E+00  0.0000E+00  0.0000E+00  0.0000E+00  0.0000E+00  0.0000E+00  0.0000E+00  0.0000E+00  0.0000E+00  0.0000E+00  0.1133E+01  0.0000E+00  0.0000E+00  0.0000E+00
REACH    3        0     8  0.1377E+01  0.6822E-02  0.6805E-02  0.1780E-04  0.0000E+00  0.2981E+02  0.2981E+02  0.1374E+04  0.1960E+02  0.1953E+02  0.4326E+01  0.4306E+01  0.4244E+01  0.4233E+01  0.0000E+00  0.3676E-01  0.0000E+00  0.0000E+00  0.6440E-03  0.1917E-02  0.1671E-02  0.1499E-03  0.9715E+02  0.9548E+02  0.2179E+03  0.1947E+03  0.0000E+00  0.0000E+00  0.0000E+00  0.0000E+00  0.0000E+00  0.0000E+00  0.0000E+00  0.0000E+00  0.0000E+00  0.0000E+00  0.0000E+00  0.0000E+00  0.0000E+00  0.0000E+00  0.0000E+00  0.0000E+00  0.0000E+00  0.2380E+02  0.4308E+01  0.0000E+00  0.0000E+00
REACH    1        0     9  0.5330E+01  0.3159E-01  0.3150E-01  0.8425E-04  0.0000E+00  0.1938E+04  0.5213E+01  0.6206E+02  0.1784E+04  0.1768E+04  0.3934E+03  0.3885E+03  0.1375E+02  0.1371E+02  0.2391E+01  0.7155E+01  0.0000E+00  0.2085E-01  0.1782E+00  0.5332E+00  0.2330E+01  0.0000E+00  0.3009E+05  0.2847E+05  0.5237E+03  0.2667E+03  0.0000E+00  0.0000E+00  0.0000E+00  0.0000E+00  0.0000E+00  0.0000E+00  0.0000E+00  0.0000E+00  0.0000E+00  0.0000E+00  0.0000E+00  0.0000E+00  0.0000E+00  0.0000E+00  0.0000E+00  0.0000E+00  0.0000E+00  0.1789E+04  0.3890E+03  0.0000E+00  0.0000E+00
REACH    2        0     9  0.1473E+01  0.6320E-02  0.6311E-02  0.8879E-05  0.0000E+00  0.2131E+02  0.2131E+02  0.1233E+04  0.2552E+02  0.2543E+02  0.5597E+01  0.5574E+01  0.2601E+01  0.2598E+01  0.0000E+00  0.4086E-01  0.0000E+00  0.0000E+00  0.1036E-02  0.3090E-02  0.2131E-01  0.2200E-02  0.2431E+03  0.2392E+03  0.1950E+03  0.1733E+03  0.0000E+00  0.0000E+00  0.0000E+00  0.0000E+00  0.0000E+00  0.0000E+00  0.0000E+00  0.0000E+00  0.0000E+00  0.0000E+00  0.0000E+00  0.0000E+00  0.0000E+00  0.0000E+00  0.0000E+00  0.0000E+00  0.0000E+00  0.2807E+02  0.5577E+01  0.0000E+00  0.0000E+00
REACH    3        0     9  0.1377E+01  0.1837E-01  0.1836E-01  0.1249E-04  0.0000E+00  0.1916E+04  0.1916E+04  0.3743E+05  0.1763E+04  0.1759E+04  0.3891E+03  0.3878E+03  0.1071E+02  0.1071E+02  0.0000E+00  0.2350E+01  0.0000E+00  0.0000E+00  0.5839E-01  0.1751E+00  0.3864E+01  0.2328E+01  0.3028E+05  0.2985E+05  0.4758E+03  0.1431E+03  0.0000E+00  0.0000E+00  0.0000E+00  0.0000E+00  0.0000E+00  0.0000E+00  0.0000E+00  0.0000E+00  0.0000E+00  0.0000E+00  0.0000E+00  0.0000E+00  0.0000E+00  0.0000E+00  0.0000E+00  0.0000E+00  0.0000E+00  0.1772E+04  0.3880E+03  0.0000E+00  0.0000E+00
REACH    1        0    10  0.5330E+01  0.5865E-01  0.5858E-01  0.6758E-04  0.0000E+00  0.1288E+05  0.1707E+02  0.1026E+03  0.7254E+04  0.7225E+04  0.1599E+04  0.1590E+04  0.2829E+02  0.2802E+02  0.4469E+01  0.1340E+02  0.0000E+00  0.1155E-01  0.5605E+00  0.1680E+01  0.1040E+03  0.5927E+02  0.4893E+06  0.4761E+06  0.8262E+03  0.6556E+03  0.0000E+00  0.0000E+00  0.0000E+00  0.0000E+00  0.0000E+00  0.0000E+00  0.0000E+00  0.0000E+00  0.0000E+00  0.0000E+00  0.0000E+00  0.0000E+00  0.0000E+00  0.0000E+00  0.0000E+00  0.0000E+00  0.0000E+00  0.7267E+04  0.1591E+04  0.0000E+00  0.0000E+00
REACH    2        0    10  0.1473E+01  0.1023E-01  0.1022E-01  0.6852E-05  0.0000E+00  0.2912E+04  0.2912E+04  0.2762E+05  0.2118E+04  0.2116E+04  0.4667E+03  0.4658E+03  0.9176E+01  0.9146E+01  0.0000E+00  0.1755E+01  0.0000E+00  0.0000E+00  0.5056E-01  0.1514E+00  0.3457E+02  0.2656E+02  0.1266E+06  0.1256E+06  0.2646E+03  0.1698E+03  0.0000E+00  0.0000E+00  0.0000E+00  0.0000E+00  0.0000E+00  0.0000E+00  0.0000E+00  0.0000E+00  0.0000E+00  0.0000E+00  0.0000E+00  0.0000E+00  0.0000E+00  0.0000E+00  0.0000E+00  0.0000E+00  0.0000E+00  0.2127E+04  0.4660E+03  0.0000E+00  0.0000E+00
REACH    3        0    10  0.1377E+01  0.4094E-01  0.4093E-01  0.1035E-04  0.0000E+00  0.7992E+04  0.7992E+04  0.4746E+05  0.3235E+04  0.3231E+04  0.7155E+03  0.7142E+03  0.1740E+02  0.1739E+02  0.0000E+00  0.2714E+01  0.0000E+00  0.0000E+00  0.1172E+00  0.3514E+00  0.3192E+02  0.2775E+02  0.2538E+06  0.2518E+06  0.1051E+04  0.4726E+03  0.0000E+00  0.0000E+00  0.0000E+00  0.0000E+00  0.0000E+00  0.0000E+00  0.0000E+00  0.0000E+00  0.0000E+00  0.0000E+00  0.0000E+00  0.0000E+00  0.0000E+00  0.0000E+00  0.0000E+00  0.0000E+00  0.0000E+00  0.3251E+04  0.7145E+03  0.0000E+00  0.0000E+00
REACH    1        0    11  0.5330E+01  0.1170E+00  0.1169E+00  0.5192E-04  0.0000E+00  0.3450E+05  0.4503E+02  0.1331E+03  0.1228E+05  0.1225E+05  0.2709E+04  0.2700E+04  0.6064E+02  0.6012E+02  0.3979E+01  0.1193E+02  0.0000E+00  0.5460E-02  0.1042E+01  0.3114E+01  0.3062E+03  0.2419E+03  0.1639E+07  0.1610E+07  0.1380E+04  0.1045E+04  0.0000E+00  0.0000E+00  0.0000E+00  0.0000E+00  0.0000E+00  0.0000E+00  0.0000E+00  0.0000E+00  0.0000E+00  0.0000E+00  0.0000E+00  0.0000E+00  0.0000E+00  0.0000E+00  0.0000E+00  0.0000E+00  0.0000E+00  0.1232E+05  0.2703E+04  0.0000E+00  0.0000E+00
REACH    2        0    11  0.1473E+01  0.2150E-01  0.2149E-01  0.5415E-05  0.0000E+00  0.8525E+04  0.8525E+04  0.3097E+05  0.4166E+04  0.4163E+04  0.9200E+03  0.9190E+03  0.1871E+02  0.1866E+02  0.0000E+00  0.2385E+01  0.0000E+00  0.0000E+00  0.1229E+00  0.3677E+00  0.1005E+03  0.9062E+02  0.4586E+06  0.4560E+06  0.4675E+03  0.2734E+03  0.0000E+00  0.0000E+00  0.0000E+00  0.0000E+00  0.0000E+00  0.0000E+00  0.0000E+00  0.0000E+00  0.0000E+00  0.0000E+00  0.0000E+00  0.0000E+00  0.0000E+00  0.0000E+00  0.0000E+00  0.0000E+00  0.0000E+00  0.4184E+04  0.9193E+03  0.0000E+00  0.0000E+00
REACH    3        0    11  0.1377E+01  0.7658E-01  0.7657E-01  0.7866E-05  0.0000E+00  0.1998E+05  0.1998E+05  0.6314E+05  0.2655E+04  0.2653E+04  0.5903E+03  0.5896E+03  0.2185E+02  0.2184E+02  0.0000E+00  0.1594E+01  0.0000E+00  0.0000E+00  0.1420E+00  0.4196E+00  0.4934E+02  0.4592E+02  0.7745E+06  0.7698E+06  0.1735E+04  0.7831E+03  0.0000E+00  0.0000E+00  0.0000E+00  0.0000E+00  0.0000E+00  0.0000E+00  0.0000E+00  0.0000E+00  0.0000E+00  0.0000E+00  0.0000E+00  0.0000E+00  0.0000E+00  0.0000E+00  0.0000E+00  0.0000E+00  0.0000E+00  0.2677E+04  0.5900E+03  0.0000E+00  0.0000E+00
REACH    1        0    12  0.5330E+01  0.1322E+00  0.1321E+00  0.6813E-04  0.0000E+00  0.1999E+05  0.5475E+02  0.1534E+03  0.2265E+04  0.2259E+04  0.5014E+03  0.4993E+03  0.5479E+02  0.5475E+02  0.7739E+00  0.2321E+01  0.0000E+00  0.1406E-02  0.2212E+00  0.6533E+00  0.2061E+02  0.1383E+02  0.5880E+06  0.5753E+06  0.1440E+04  0.8949E+03  0.0000E+00  0.0000E+00  0.0000E+00  0.0000E+00  0.0000E+00  0.0000E+00  0.0000E+00  0.0000E+00  0.0000E+00  0.0000E+00  0.0000E+00  0.0000E+00  0.0000E+00  0.0000E+00  0.0000E+00  0.0000E+00  0.0000E+00  0.2316E+04  0.5000E+03  0.0000E+00  0.0000E+00
REACH    2        0    12  0.1473E+01  0.2257E-01  0.2256E-01  0.7045E-05  0.0000E+00  0.2373E+04  0.2373E+04  0.2648E+05  0.8301E+03  0.8293E+03  0.1839E+03  0.1836E+03  0.1640E+02  0.1639E+02  0.0000E+00  0.6024E+00  0.0000E+00  0.0000E+00  0.2999E-01  0.8981E-01  0.6301E+01  0.5153E+01  0.7164E+05  0.7112E+05  0.6406E+03  0.3512E+03  0.0000E+00  0.0000E+00  0.0000E+00  0.0000E+00  0.0000E+00  0.0000E+00  0.0000E+00  0.0000E+00  0.0000E+00  0.0000E+00  0.0000E+00  0.0000E+00  0.0000E+00  0.0000E+00  0.0000E+00  0.0000E+00  0.0000E+00  0.8463E+03  0.1837E+03  0.0000E+00  0.0000E+00
REACH    3        0    12  0.1377E+01  0.9248E-01  0.9247E-01  0.1034E-04  0.0000E+00  0.1601E+05  0.1601E+05  0.5407E+05  0.2721E+03  0.2719E+03  0.6159E+02  0.6152E+02  0.1796E+02  0.1796E+02  0.0000E+00  0.1715E+00  0.0000E+00  0.0000E+00  0.3375E-01  0.7800E-01  0.1594E+01  0.1468E+01  0.4538E+06  0.4509E+06  0.2209E+04  0.6204E+03  0.0000E+00  0.0000E+00  0.0000E+00  0.0000E+00  0.0000E+00  0.0000E+00  0.0000E+00  0.0000E+00  0.0000E+00  0.0000E+00  0.0000E+00  0.0000E+00  0.0000E+00  0.0000E+00  0.0000E+00  0.0000E+00  0.0000E+00  0.2900E+03  0.6160E+02  0.0000E+00  0.0000E+00
REACH    1        0  1989  0.5330E+01  0.6131E-01  0.6121E-01  0.9412E-04  0.0000E+00  0.9885E+05  0.1885E+03  0.9656E+02  0.7889E+05  0.7860E+05  0.1727E+05  0.1717E+05  0.4473E+03  0.4407E+03  0.4363E+02  0.1308E+03  0.0000E+00  0.1149E+00  0.6514E+01  0.1950E+02  0.1836E+04  0.8840E+03  0.4350E+07  0.4245E+07  0.1068E+05  0.9078E+04  0.0000E+00  0.0000E+00  0.0000E+00  0.0000E+00  0.0000E+00  0.0000E+00  0.0000E+00  0.0000E+00  0.0000E+00  0.0000E+00  0.0000E+00  0.0000E+00  0.0000E+00  0.0000E+00  0.0000E+00  0.0000E+00  0.0000E+00  0.7918E+05  0.1719E+05  0.0000E+00  0.0000E+00
REACH    2        0  1989  0.1473E+01  0.1287E-01  0.1286E-01  0.9769E-05  0.0000E+00  0.2365E+05  0.2365E+05  0.1988E+05  0.2451E+05  0.2449E+05  0.5368E+04  0.5360E+04  0.1288E+03  0.1278E+03  0.0000E+00  0.1898E+02  0.0000E+00  0.0000E+00  0.7609E+00  0.2279E+01  0.6504E+03  0.5221E+03  0.1173E+07  0.1165E+07  0.3330E+04  0.2565E+04  0.0000E+00  0.0000E+00  0.0000E+00  0.0000E+00  0.0000E+00  0.0000E+00  0.0000E+00  0.0000E+00  0.0000E+00  0.0000E+00  0.0000E+00  0.0000E+00  0.0000E+00  0.0000E+00  0.0000E+00  0.0000E+00  0.0000E+00  0.2464E+05  0.5362E+04  0.0000E+00  0.0000E+00
REACH    3        0  1989  0.1377E+01  0.3457E-01  0.3455E-01  0.1397E-04  0.0000E+00  0.5604E+05  0.5604E+05  0.3192E+05  0.2534E+05  0.2531E+05  0.5559E+04  0.5548E+04  0.1773E+03  0.1764E+03  0.0000E+00  0.2465E+02  0.0000E+00  0.0000E+00  0.9826E+00  0.2916E+01  0.5567E+03  0.4221E+03  0.2005E+07  0.1990E+07  0.8485E+04  0.4718E+04  0.0000E+00  0.0000E+00  0.0000E+00  0.0000E+00  0.0000E+00  0.0000E+00  0.0000E+00  0.0000E+00  0.0000E+00  0.0000E+00  0.0000E+00  0.0000E+00  0.0000E+00  0.0000E+00  0.0000E+00  0.0000E+00  0.0000E+00  0.2551E+05  0.5551E+04  0.0000E+00  0.0000E+00
REACH    1        0     1  0.5330E+01  0.1787E+00  0.1787E+00  0.3489E-04  0.0000E+00  0.3587E+05  0.8192E+02  0.1659E+03  0.1331E+05  0.1327E+05  0.2925E+04  0.2914E+04  0.5915E+02  0.5900E+02  0.4472E+01  0.1341E+02  0.0000E+00  0.9941E-02  0.1276E+01  0.3810E+01  0.1287E+03  0.9772E+02  0.1097E+07  0.1075E+07  0.1938E+04  0.1034E+04  0.0000E+00  0.0000E+00  0.0000E+00  0.0000E+00  0.0000E+00  0.0000E+00  0.0000E+00  0.0000E+00  0.0000E+00  0.0000E+00  0.0000E+00  0.0000E+00  0.0000E+00  0.0000E+00  0.0000E+00  0.0000E+00  0.0000E+00  0.1335E+05  0.2917E+04  0.0000E+00  0.0000E+00
REACH    2        0     1  0.1473E+01  0.3608E-01  0.3607E-01  0.3530E-05  0.0000E+00  0.6856E+04  0.6856E+04  0.4742E+05  0.3751E+04  0.3748E+04  0.8262E+03  0.8251E+03  0.1649E+02  0.1648E+02  0.0000E+00  0.2326E+01  0.0000E+00  0.0000E+00  0.1321E+00  0.3956E+00  0.3336E+02  0.2917E+02  0.2199E+06  0.2185E+06  0.9041E+03  0.3380E+03  0.0000E+00  0.0000E+00  0.0000E+00  0.0000E+00  0.0000E+00  0.0000E+00  0.0000E+00  0.0000E+00  0.0000E+00  0.0000E+00  0.0000E+00  0.0000E+00  0.0000E+00  0.0000E+00  0.0000E+00  0.0000E+00  0.0000E+00  0.3767E+04  0.8255E+03  0.0000E+00  0.0000E+00
REACH    3        0     1  0.1377E+01  0.1119E+00  0.1119E+00  0.5476E-05  0.0000E+00  0.2347E+05  0.2347E+05  0.6663E+05  0.3787E+04  0.3784E+04  0.8323E+03  0.8314E+03  0.1520E+02  0.1519E+02  0.0000E+00  0.2146E+01  0.0000E+00  0.0000E+00  0.2235E+00  0.6392E+00  0.2360E+02  0.2194E+02  0.6465E+06  0.6427E+06  0.2700E+04  0.8645E+03  0.0000E+00  0.0000E+00  0.0000E+00  0.0000E+00  0.0000E+00  0.0000E+00  0.0000E+00  0.0000E+00  0.0000E+00  0.0000E+00  0.0000E+00  0.0000E+00  0.0000E+00  0.0000E+00  0.0000E+00  0.0000E+00  0.0000E+00  0.3802E+04  0.8320E+03  0.0000E+00  0.0000E+00
REACH    1        0     2  0.5330E+01  0.1991E+00  0.1991E+00  0.5506E-04  0.0000E+00  0.3131E+05  0.8346E+02  0.1799E+03  0.5672E+04  0.5660E+04  0.1253E+04  0.1249E+04  0.5327E+02  0.5323E+02  0.1277E+01  0.3831E+01  0.0000E+00  0.2164E-02  0.3914E+00  0.1142E+01  0.6342E+02  0.5241E+02  0.9883E+06  0.9725E+06  0.2500E+04  0.1264E+04  0.0000E+00  0.0000E+00  0.0000E+00  0.0000E+00  0.0000E+00  0.0000E+00  0.0000E+00  0.0000E+00  0.0000E+00  0.0000E+00  0.0000E+00  0.0000E+00  0.0000E+00  0.0000E+00  0.0000E+00  0.0000E+00  0.0000E+00  0.5717E+04  0.1250E+04  0.0000E+00  0.0000E+00
REACH    2        0     2  0.1473E+01  0.4399E-01  0.4398E-01  0.5517E-05  0.0000E+00  0.8536E+04  0.8536E+04  0.3902E+05  0.1812E+04  0.1811E+04  0.4013E+03  0.4009E+03  0.1378E+02  0.1378E+02  0.0000E+00  0.8882E+00  0.0000E+00  0.0000E+00  0.5253E-01  0.1564E+00  0.2149E+02  0.1981E+02  0.3089E+06  0.3074E+06  0.1023E+04  0.7431E+03  0.0000E+00  0.0000E+00  0.0000E+00  0.0000E+00  0.0000E+00  0.0000E+00  0.0000E+00  0.0000E+00  0.0000E+00  0.0000E+00  0.0000E+00  0.0000E+00  0.0000E+00  0.0000E+00  0.0000E+00  0.0000E+00  0.0000E+00  0.1826E+04  0.4011E+03  0.0000E+00  0.0000E+00
REACH    3        0     2  0.1377E+01  0.1129E+00  0.1129E+00  0.8092E-05  0.0000E+00  0.1780E+05  0.1780E+05  0.4961E+05  0.7481E+03  0.7476E+03  0.1666E+03  0.1665E+03  0.1250E+02  0.1250E+02  0.0000E+00  0.3891E+00  0.0000E+00  0.0000E+00  0.3773E-01  0.9680E-01  0.6990E+01  0.6591E+01  0.4801E+06  0.4775E+06  0.2535E+04  0.7968E+03  0.0000E+00  0.0000E+00  0.0000E+00  0.0000E+00  0.0000E+00  0.0000E+00  0.0000E+00  0.0000E+00  0.0000E+00  0.0000E+00  0.0000E+00  0.0000E+00  0.0000E+00  0.0000E+00  0.0000E+00  0.0000E+00  0.0000E+00  0.7605E+03  0.1666E+03  0.0000E+00  0.0000E+00
REACH    1        0     3  0.5330E+01  0.1742E+00  0.1741E+00  0.9235E-04  0.0000E+00  0.1314E+05  0.7656E+02  0.1620E+03  0.2272E+04  0.2266E+04  0.5021E+03  0.5003E+03  0.4098E+02  0.4094E+02  0.3922E+00  0.1176E+01  0.0000E+00  0.8072E-03  0.1402E+00  0.4003E+00  0.1500E+02  0.1169E+02  0.3103E+06  0.3046E+06  0.3362E+04  0.2453E+04  0.0000E+00  0.0000E+00  0.0000E+00  0.0000E+00  0.0000E+00  0.0000E+00  0.0000E+00  0.0000E+00  0.0000E+00  0.0000E+00  0.0000E+00  0.0000E+00  0.0000E+00  0.0000E+00  0.0000E+00  0.0000E+00  0.0000E+00  0.2308E+04  0.5007E+03  0.0000E+00  0.0000E+00
REACH    2        0     3  0.1473E+01  0.4150E-01  0.4149E-01  0.9078E-05  0.0000E+00  0.3348E+04  0.3348E+04  0.1784E+05  0.5731E+03  0.5728E+03  0.1273E+03  0.1272E+03  0.1043E+02  0.1042E+02  0.0000E+00  0.2824E+00  0.0000E+00  0.0000E+00  0.1902E-01  0.5557E-01  0.4132E+01  0.3725E+01  0.9587E+05  0.9540E+05  0.1235E+04  0.9449E+03  0.0000E+00  0.0000E+00  0.0000E+00  0.0000E+00  0.0000E+00  0.0000E+00  0.0000E+00  0.0000E+00  0.0000E+00  0.0000E+00  0.0000E+00  0.0000E+00  0.0000E+00  0.0000E+00  0.0000E+00  0.0000E+00  0.0000E+00  0.5835E+03  0.1272E+03  0.0000E+00  0.0000E+00
REACH    3        0     3  0.1377E+01  0.9052E-01  0.9051E-01  0.1310E-04  0.0000E+00  0.6781E+04  0.6781E+04  0.2281E+05  0.1843E+03  0.1842E+03  0.4116E+02  0.4111E+02  0.9959E+01  0.9958E+01  0.0000E+00  0.1098E+00  0.0000E+00  0.0000E+00  0.9242E-02  0.2288E-01  0.7589E+00  0.7049E+00  0.1259E+06  0.1252E+06  0.2612E+04  0.1204E+04  0.0000E+00  0.0000E+00  0.0000E+00  0.0000E+00  0.0000E+00  0.0000E+00  0.0000E+00  0.0000E+00  0.0000E+00  0.0000E+00  0.0000E+00  0.0000E+00  0.0000E+00  0.0000E+00  0.0000E+00  0.0000E+00  0.0000E+00  0.1942E+03  0.4113E+02  0.0000E+00  0.0000E+00
REACH    1        0     4  0.5330E+01  0.1572E+00  0.1570E+00  0.1208E-03  0.0000E+00  0.1380E+05  0.6281E+02  0.1475E+03  0.2357E+04  0.2352E+04  0.5214E+03  0.5199E+03  0.2368E+02  0.2364E+02  0.3023E+00  0.9068E+00  0.0000E+00  0.4426E-03  0.1121E+00  0.3208E+00  0.4422E+02  0.3770E+02  0.5155E+06  0.5077E+06  0.3485E+04  0.3141E+04  0.0000E+00  0.0000E+00  0.0000E+00  0.0000E+00  0.0000E+00  0.0000E+00  0.0000E+00  0.0000E+00  0.0000E+00  0.0000E+00  0.0000E+00  0.0000E+00  0.0000E+00  0.0000E+00  0.0000E+00  0.0000E+00  0.0000E+00  0.2377E+04  0.5203E+03  0.0000E+00  0.0000E+00
REACH    2        0     4  0.1473E+01  0.4036E-01  0.4035E-01  0.1323E-04  0.0000E+00  0.4440E+04  0.4440E+04  0.1211E+05  0.5106E+03  0.5103E+03  0.1137E+03  0.1136E+03  0.6164E+01  0.6161E+01  0.0000E+00  0.2237E+00  0.0000E+00  0.0000E+00  0.1223E-01  0.3577E-01  0.8763E+01  0.8221E+01  0.1728E+06  0.1720E+06  0.1146E+04  0.9172E+03  0.0000E+00  0.0000E+00  0.0000E+00  0.0000E+00  0.0000E+00  0.0000E+00  0.0000E+00  0.0000E+00  0.0000E+00  0.0000E+00  0.0000E+00  0.0000E+00  0.0000E+00  0.0000E+00  0.0000E+00  0.0000E+00  0.0000E+00  0.5166E+03  0.1136E+03  0.0000E+00  0.0000E+00
REACH    3        0     4  0.1377E+01  0.7494E-01  0.7492E-01  0.1866E-04  0.0000E+00  0.5006E+04  0.5006E+04  0.1686E+05  0.1258E+03  0.1257E+03  0.2814E+02  0.2811E+02  0.6553E+01  0.6551E+01  0.0000E+00  0.7865E-01  0.0000E+00  0.0000E+00  0.5422E-02  0.1442E-01  0.1957E+01  0.1841E+01  0.1379E+06  0.1370E+06  0.2106E+04  0.1433E+04  0.0000E+00  0.0000E+00  0.0000E+00  0.0000E+00  0.0000E+00  0.0000E+00  0.0000E+00  0.0000E+00  0.0000E+00  0.0000E+00  0.0000E+00  0.0000E+00  0.0000E+00  0.0000E+00  0.0000E+00  0.0000E+00  0.0000E+00  0.1324E+03  0.2812E+02  0.0000E+00  0.0000E+00
REACH    1        0     5  0.5330E+01  0.1160E+00  0.1158E+00  0.1530E-03  0.0000E+00  0.8432E+02  0.4563E+02  0.1465E+03  0.9341E-01  0.9299E-01  0.2186E-01  0.2171E-01  0.1201E+02  0.1200E+02  0.1115E-01  0.3342E-01  0.0000E+00  0.0000E+00  0.5585E-04  0.1410E-03  0.5318E-06  0.0000E+00  0.1508E+03  0.1468E+03  0.3516E+04  0.3489E+04  0.0000E+00  0.0000E+00  0.0000E+00  0.0000E+00  0.0000E+00  0.0000E+00  0.0000E+00  0.0000E+00  0.0000E+00  0.0000E+00  0.0000E+00  0.0000E+00  0.0000E+00  0.0000E+00  0.0000E+00  0.0000E+00  0.0000E+00  0.1212E+02  0.2185E-01  0.0000E+00  0.0000E+00
REACH    2        0     5  0.1473E+01  0.3220E-01  0.3218E-01  0.1643E-04  0.0000E+00  0.2218E+01  0.2218E+01  0.2608E+02  0.6692E-01  0.6682E-01  0.1510E-01  0.1505E-01  0.3036E+01  0.3034E+01  0.0000E+00  0.4736E-02  0.0000E+00  0.0000E+00  0.8111E-05  0.8283E-05  0.5745E-07  0.0000E+00  0.7553E+00  0.7501E+00  0.1026E+04  0.1004E+04  0.0000E+00  0.0000E+00  0.0000E+00  0.0000E+00  0.0000E+00  0.0000E+00  0.0000E+00  0.0000E+00  0.0000E+00  0.0000E+00  0.0000E+00  0.0000E+00  0.0000E+00  0.0000E+00  0.0000E+00  0.0000E+00  0.0000E+00  0.3106E+01  0.1506E-01  0.0000E+00  0.0000E+00
REACH    3        0     5  0.1377E+01  0.5103E-01  0.5101E-01  0.2331E-04  0.0000E+00  0.8210E+02  0.8210E+02  0.5596E+03  0.2613E-01  0.2607E-01  0.6713E-02  0.6674E-02  0.3791E+01  0.3789E+01  0.0000E+00  0.6417E-02  0.0000E+00  0.0000E+00  0.4116E-04  0.3771E-04  0.6319E-06  0.5318E-06  0.1515E+03  0.1501E+03  0.1600E+04  0.1502E+04  0.0000E+00  0.0000E+00  0.0000E+00  0.0000E+00  0.0000E+00  0.0000E+00  0.0000E+00  0.0000E+00  0.0000E+00  0.0000E+00  0.0000E+00  0.0000E+00  0.0000E+00  0.0000E+00  0.0000E+00  0.0000E+00  0.0000E+00  0.3821E+01  0.6711E-02  0.0000E+00  0.0000E+00
REACH    1        0     6  0.5330E+01  0.8170E-01  0.8157E-01  0.1252E-03  0.0000E+00  0.1087E-05  0.2272E+02  0.1062E+03  0.7004E-05  0.0000E+00  0.2101E-04  0.0000E+00  0.4521E+01  0.4514E+01  0.1021E-01  0.3059E-01  0.0000E+00  0.0000E+00  0.7011E-05  0.0000E+00  0.6951E-18  0.0000E+00  0.0000E+00  0.0000E+00  0.2493E+04  0.2500E+04  0.0000E+00  0.0000E+00  0.0000E+00  0.0000E+00  0.0000E+00  0.0000E+00  0.0000E+00  0.0000E+00  0.0000E+00  0.0000E+00  0.0000E+00  0.0000E+00  0.0000E+00  0.0000E+00  0.0000E+00  0.0000E+00  0.0000E+00  0.4545E+01  0.0000E+00  0.0000E+00  0.0000E+00
REACH    2        0     6  0.1473E+01  0.2544E-01  0.2543E-01  0.1347E-04  0.0000E+00  0.3805E-06  0.3805E-06  0.5804E-05  0.4322E-05  0.0000E+00  0.1297E-04  0.0000E+00  0.1120E+01  0.1119E+01  0.0000E+00  0.4354E-02  0.0000E+00  0.0000E+00  0.4328E-05  0.0000E+00  0.2116E-18  0.0000E+00  0.0000E+00  0.0000E+00  0.7958E+03  0.7794E+03  0.0000E+00  0.0000E+00  0.0000E+00  0.0000E+00  0.0000E+00  0.0000E+00  0.0000E+00  0.0000E+00  0.0000E+00  0.0000E+00  0.0000E+00  0.0000E+00  0.0000E+00  0.0000E+00  0.0000E+00  0.0000E+00  0.0000E+00  0.1124E+01  0.0000E+00  0.0000E+00  0.0000E+00
REACH    3        0     6  0.1377E+01  0.3046E-01  0.3044E-01  0.1867E-04  0.0000E+00  0.4506E-06  0.4506E-06  0.5882E-05  0.6545E-05  0.0000E+00  0.1256E-04  0.0000E+00  0.1588E+01  0.1587E+01  0.0000E+00  0.5860E-02  0.0000E+00  0.0000E+00  0.4060E-05  0.0000E+00  0.9325E-16  0.0000E+00  0.0000E+00  0.0000E+00  0.9389E+03  0.9323E+03  0.0000E+00  0.0000E+00  0.0000E+00  0.0000E+00  0.0000E+00  0.0000E+00  0.0000E+00  0.0000E+00  0.0000E+00  0.0000E+00  0.0000E+00  0.0000E+00  0.0000E+00  0.0000E+00  0.0000E+00  0.0000E+00  0.0000E+00  0.1593E+01  0.0000E+00  0.0000E+00  0.0000E+00
REACH    1        0     7  0.5330E+01  0.5509E-01  0.5496E-01  0.1287E-03  0.0000E+00  0.1124E-05  0.1588E+02  0.1068E+03  0.7237E-05  0.0000E+00  0.2171E-04  0.0000E+00  0.1974E+01  0.1970E+01  0.1027E-01  0.3073E-01  0.0000E+00  0.0000E+00  0.7245E-05  0.0000E+00  0.1247E-17  0.0000E+00  0.0000E+00  0.0000E+00  0.1751E+04  0.1756E+04  0.0000E+00  0.0000E+00  0.0000E+00  0.0000E+00  0.0000E+00  0.0000E+00  0.0000E+00  0.0000E+00  0.0000E+00  0.0000E+00  0.0000E+00  0.0000E+00  0.0000E+00  0.0000E+00  0.0000E+00  0.0000E+00  0.0000E+00  0.2000E+01  0.0000E+00  0.0000E+00  0.0000E+00
REACH    2        0     7  0.1473E+01  0.1947E-01  0.1945E-01  0.1410E-04  0.0000E+00  0.3932E-06  0.3932E-06  0.7597E-05  0.4466E-05  0.0000E+00  0.1340E-04  0.0000E+00  0.4614E+00  0.4610E+00  0.0000E+00  0.4404E-02  0.0000E+00  0.0000E+00  0.4471E-05  0.0000E+00  0.3779E-18  0.0000E+00  0.0000E+00  0.0000E+00  0.6346E+03  0.6214E+03  0.0000E+00  0.0000E+00  0.0000E+00  0.0000E+00  0.0000E+00  0.0000E+00  0.0000E+00  0.0000E+00  0.0000E+00  0.0000E+00  0.0000E+00  0.0000E+00  0.0000E+00  0.0000E+00  0.0000E+00  0.0000E+00  0.0000E+00  0.4654E+00  0.0000E+00  0.0000E+00  0.0000E+00
REACH    3        0     7  0.1377E+01  0.1598E-01  0.1596E-01  0.1911E-04  0.0000E+00  0.4657E-06  0.4657E-06  0.1127E-04  0.4139E-05  0.0000E+00  0.1242E-04  0.0000E+00  0.8281E+00  0.8271E+00  0.0000E+00  0.5865E-02  0.0000E+00  0.0000E+00  0.4143E-05  0.0000E+00  0.1419E-16  0.0000E+00  0.0000E+00  0.0000E+00  0.5139E+03  0.5100E+03  0.0000E+00  0.0000E+00  0.0000E+00  0.0000E+00  0.0000E+00  0.0000E+00  0.0000E+00  0.0000E+00  0.0000E+00  0.0000E+00  0.0000E+00  0.0000E+00  0.0000E+00  0.0000E+00  0.0000E+00  0.0000E+00  0.0000E+00  0.8329E+00  0.0000E+00  0.0000E+00  0.0000E+00
REACH    1        0     8  0.5330E+01  0.4176E-01  0.4165E-01  0.1068E-03  0.0000E+00  0.1042E+04  0.9192E+01  0.8205E+02  0.2571E+01  0.2554E+01  0.5894E+00  0.5841E+00  0.1948E+01  0.1943E+01  0.1397E-01  0.4181E-01  0.0000E+00  0.2115E-04  0.8586E-03  0.2548E-02  0.2245E-02  0.0000E+00  0.2570E+05  0.2472E+05  0.1187E+04  0.1098E+04  0.0000E+00  0.0000E+00  0.0000E+00  0.0000E+00  0.0000E+00  0.0000E+00  0.0000E+00  0.0000E+00  0.0000E+00  0.0000E+00  0.0000E+00  0.0000E+00  0.0000E+00  0.0000E+00  0.0000E+00  0.0000E+00  0.0000E+00  0.4539E+01  0.5866E+00  0.0000E+00  0.0000E+00
REACH    2        0     8  0.1473E+01  0.1476E-01  0.1475E-01  0.1167E-04  0.0000E+00  0.8002E+02  0.8002E+02  0.2004E+04  0.2273E+01  0.2268E+01  0.5126E+00  0.5109E+00  0.3132E+00  0.3130E+00  0.0000E+00  0.7529E-02  0.0000E+00  0.0000E+00  0.8562E-04  0.2373E-03  0.2012E-02  0.1186E-02  0.8059E+03  0.7945E+03  0.4756E+03  0.4382E+03  0.0000E+00  0.0000E+00  0.0000E+00  0.0000E+00  0.0000E+00  0.0000E+00  0.0000E+00  0.0000E+00  0.0000E+00  0.0000E+00  0.0000E+00  0.0000E+00  0.0000E+00  0.0000E+00  0.0000E+00  0.0000E+00  0.0000E+00  0.2588E+01  0.5112E+00  0.0000E+00  0.0000E+00
REACH    3        0     8  0.1377E+01  0.1236E-01  0.1234E-01  0.1584E-04  0.0000E+00  0.9623E+03  0.9623E+03  0.1562E+05  0.3041E+00  0.3033E+00  0.7871E-01  0.7842E-01  0.1384E+01  0.1382E+01  0.0000E+00  0.6441E-02  0.0000E+00  0.0000E+00  0.2459E-03  0.6141E-03  0.1749E-02  0.1059E-02  0.2525E+05  0.2491E+05  0.3706E+03  0.2904E+03  0.0000E+00  0.0000E+00  0.0000E+00  0.0000E+00  0.0000E+00  0.0000E+00  0.0000E+00  0.0000E+00  0.0000E+00  0.0000E+00  0.0000E+00  0.0000E+00  0.0000E+00  0.0000E+00  0.0000E+00  0.0000E+00  0.0000E+00  0.1692E+01  0.7904E-01  0.0000E+00  0.0000E+00
REACH    1        0     9  0.5330E+01  0.4866E-01  0.4858E-01  0.8624E-04  0.0000E+00  0.2217E+04  0.1222E+02  0.9560E+02  0.2027E+01  0.2016E+01  0.4853E+00  0.4817E+00  0.4939E+01  0.4930E+01  0.1311E-01  0.3925E-01  0.0000E+00  0.0000E+00  0.2741E-02  0.7915E-02  0.2208E-02  0.1416E-03  0.3726E+05  0.3598E+05  0.8581E+03  0.4062E+03  0.0000E+00  0.0000E+00  0.0000E+00  0.0000E+00  0.0000E+00  0.0000E+00  0.0000E+00  0.0000E+00  0.0000E+00  0.0000E+00  0.0000E+00  0.0000E+00  0.0000E+00  0.0000E+00  0.0000E+00  0.0000E+00  0.0000E+00  0.6985E+01  0.4896E+00  0.0000E+00  0.0000E+00
REACH    2        0     9  0.1473E+01  0.1242E-01  0.1241E-01  0.9411E-05  0.0000E+00  0.2463E+02  0.2463E+02  0.7398E+03  0.8653E+00  0.8633E+00  0.1950E+00  0.1944E+00  0.1022E+01  0.1021E+01  0.0000E+00  0.5820E-02  0.0000E+00  0.0000E+00  0.6294E-04  0.1655E-03  0.4147E-03  0.2142E-03  0.2188E+03  0.2152E+03  0.3831E+03  0.3515E+03  0.0000E+00  0.0000E+00  0.0000E+00  0.0000E+00  0.0000E+00  0.0000E+00  0.0000E+00  0.0000E+00  0.0000E+00  0.0000E+00  0.0000E+00  0.0000E+00  0.0000E+00  0.0000E+00  0.0000E+00  0.0000E+00  0.0000E+00  0.1890E+01  0.1945E+00  0.0000E+00  0.0000E+00
REACH    3        0     9  0.1377E+01  0.2528E-01  0.2527E-01  0.1292E-04  0.0000E+00  0.2193E+04  0.2193E+04  0.2927E+05  0.1166E+01  0.1163E+01  0.2917E+00  0.2909E+00  0.3815E+01  0.3813E+01  0.0000E+00  0.7286E-02  0.0000E+00  0.0000E+00  0.1436E-02  0.2569E-02  0.2705E-02  0.1993E-02  0.3747E+05  0.3705E+05  0.6578E+03  0.1776E+03  0.0000E+00  0.0000E+00  0.0000E+00  0.0000E+00  0.0000E+00  0.0000E+00  0.0000E+00  0.0000E+00  0.0000E+00  0.0000E+00  0.0000E+00  0.0000E+00  0.0000E+00  0.0000E+00  0.0000E+00  0.0000E+00  0.0000E+00  0.4983E+01  0.2935E+00  0.0000E+00  0.0000E+00
REACH    1        0    10  0.5330E+01  0.7112E-01  0.7105E-01  0.6947E-04  0.0000E+00  0.8970E+04  0.2149E+02  0.1117E+03  0.1867E+03  0.1861E+03  0.4159E+02  0.4139E+02  0.9593E+01  0.9582E+01  0.9959E-01  0.2986E+00  0.0000E+00  0.1937E-03  0.2010E-01  0.5736E-01  0.1737E+01  0.9524E+00  0.2177E+06  0.2110E+06  0.9313E+03  0.6067E+03  0.0000E+00  0.0000E+00  0.0000E+00  0.0000E+00  0.0000E+00  0.0000E+00  0.0000E+00  0.0000E+00  0.0000E+00  0.0000E+00  0.0000E+00  0.0000E+00  0.0000E+00  0.0000E+00  0.0000E+00  0.0000E+00  0.0000E+00  0.1960E+03  0.4145E+02  0.0000E+00  0.0000E+00
REACH    2        0    10  0.1473E+01  0.1377E-01  0.1376E-01  0.7314E-05  0.0000E+00  0.8906E+03  0.8906E+03  0.1848E+05  0.7248E+02  0.7237E+02  0.1622E+02  0.1619E+02  0.2768E+01  0.2766E+01  0.0000E+00  0.7473E-01  0.0000E+00  0.0000E+00  0.2497E-02  0.7418E-02  0.5198E+00  0.3867E+00  0.2135E+05  0.2112E+05  0.4022E+03  0.2595E+03  0.0000E+00  0.0000E+00  0.0000E+00  0.0000E+00  0.0000E+00  0.0000E+00  0.0000E+00  0.0000E+00  0.0000E+00  0.0000E+00  0.0000E+00  0.0000E+00  0.0000E+00  0.0000E+00  0.0000E+00  0.0000E+00  0.0000E+00  0.7521E+02  0.1619E+02  0.0000E+00  0.0000E+00
REACH    3        0    10  0.1377E+01  0.4853E-01  0.4852E-01  0.1065E-04  0.0000E+00  0.7834E+04  0.7834E+04  0.5217E+05  0.2577E+02  0.2574E+02  0.5826E+01  0.5817E+01  0.6352E+01  0.6351E+01  0.0000E+00  0.2486E-01  0.0000E+00  0.0000E+00  0.4527E-02  0.8037E-02  0.5414E+00  0.4822E+00  0.1890E+06  0.1874E+06  0.1220E+04  0.4087E+03  0.0000E+00  0.0000E+00  0.0000E+00  0.0000E+00  0.0000E+00  0.0000E+00  0.0000E+00  0.0000E+00  0.0000E+00  0.0000E+00  0.0000E+00  0.0000E+00  0.0000E+00  0.0000E+00  0.0000E+00  0.0000E+00  0.0000E+00  0.3212E+02  0.5825E+01  0.0000E+00  0.0000E+00
REACH    1        0    11  0.5330E+01  0.1441E+00  0.1440E+00  0.5781E-04  0.0000E+00  0.3990E+05  0.6117E+02  0.1507E+03  0.4101E+04  0.4091E+04  0.9089E+03  0.9058E+03  0.3072E+02  0.3067E+02  0.4936E+00  0.1480E+01  0.0000E+00  0.6633E-03  0.2738E+00  0.7830E+00  0.9506E+02  0.7403E+02  0.1761E+07  0.1728E+07  0.1289E+04  0.7557E+03  0.0000E+00  0.0000E+00  0.0000E+00  0.0000E+00  0.0000E+00  0.0000E+00  0.0000E+00  0.0000E+00  0.0000E+00  0.0000E+00  0.0000E+00  0.0000E+00  0.0000E+00  0.0000E+00  0.0000E+00  0.0000E+00  0.0000E+00  0.4124E+04  0.9066E+03  0.0000E+00  0.0000E+00
REACH    2        0    11  0.1473E+01  0.2978E-01  0.2978E-01  0.5742E-05  0.0000E+00  0.8754E+04  0.8754E+04  0.5345E+05  0.6468E+03  0.6463E+03  0.1445E+03  0.1444E+03  0.8927E+01  0.8924E+01  0.0000E+00  0.3558E+00  0.0000E+00  0.0000E+00  0.2361E-01  0.6931E-01  0.1250E+02  0.1115E+02  0.4068E+06  0.4046E+06  0.6316E+03  0.2469E+03  0.0000E+00  0.0000E+00  0.0000E+00  0.0000E+00  0.0000E+00  0.0000E+00  0.0000E+00  0.0000E+00  0.0000E+00  0.0000E+00  0.0000E+00  0.0000E+00  0.0000E+00  0.0000E+00  0.0000E+00  0.0000E+00  0.0000E+00  0.6556E+03  0.1445E+03  0.0000E+00  0.0000E+00
REACH    3        0    11  0.1377E+01  0.8772E-01  0.8771E-01  0.8579E-05  0.0000E+00  0.2085E+05  0.2085E+05  0.6718E+05  0.2301E+03  0.2299E+03  0.5158E+02  0.5152E+02  0.1005E+02  0.1005E+02  0.0000E+00  0.1378E+00  0.0000E+00  0.0000E+00  0.1588E-01  0.3824E-01  0.4496E+01  0.4187E+01  0.7604E+06  0.7557E+06  0.1879E+04  0.6318E+03  0.0000E+00  0.0000E+00  0.0000E+00  0.0000E+00  0.0000E+00  0.0000E+00  0.0000E+00  0.0000E+00  0.0000E+00  0.0000E+00  0.0000E+00  0.0000E+00  0.0000E+00  0.0000E+00  0.0000E+00  0.0000E+00  0.0000E+00  0.2401E+03  0.5156E+02  0.0000E+00  0.0000E+00
REACH    1        0    12  0.5330E+01  0.1936E+00  0.1936E+00  0.3520E-04  0.0000E+00  0.4875E+05  0.9819E+02  0.1680E+03  0.2601E+04  0.2596E+04  0.5782E+03  0.5767E+03  0.4199E+02  0.4196E+02  0.3139E+00  0.9416E+00  0.0000E+00  0.2902E-03  0.2466E+00  0.6846E+00  0.5935E+02  0.5366E+02  0.2058E+07  0.2030E+07  0.1933E+04  0.1122E+04  0.0000E+00  0.0000E+00  0.0000E+00  0.0000E+00  0.0000E+00  0.0000E+00  0.0000E+00  0.0000E+00  0.0000E+00  0.0000E+00  0.0000E+00  0.0000E+00  0.0000E+00  0.0000E+00  0.0000E+00  0.0000E+00  0.0000E+00  0.2639E+04  0.5774E+03  0.0000E+00  0.0000E+00
REACH    2        0    12  0.1473E+01  0.4220E-01  0.4220E-01  0.3041E-05  0.0000E+00  0.1211E+05  0.1211E+05  0.4987E+05  0.4434E+03  0.4431E+03  0.9941E+02  0.9932E+02  0.1103E+02  0.1103E+02  0.0000E+00  0.2071E+00  0.0000E+00  0.0000E+00  0.1948E-01  0.5536E-01  0.8868E+01  0.8444E+01  0.5630E+06  0.5607E+06  0.9639E+03  0.3713E+03  0.0000E+00  0.0000E+00  0.0000E+00  0.0000E+00  0.0000E+00  0.0000E+00  0.0000E+00  0.0000E+00  0.0000E+00  0.0000E+00  0.0000E+00  0.0000E+00  0.0000E+00  0.0000E+00  0.0000E+00  0.0000E+00  0.0000E+00  0.4543E+03  0.9938E+02  0.0000E+00  0.0000E+00
REACH    3        0    12  0.1377E+01  0.1106E+00  0.1105E+00  0.4989E-05  0.0000E+00  0.2699E+05  0.2699E+05  0.6444E+05  0.2064E+03  0.2063E+03  0.4644E+02  0.4639E+02  0.1132E+02  0.1132E+02  0.0000E+00  0.1068E+00  0.0000E+00  0.0000E+00  0.1537E-01  0.3164E-01  0.4160E+01  0.4015E+01  0.9274E+06  0.9225E+06  0.2590E+04  0.7284E+03  0.0000E+00  0.0000E+00  0.0000E+00  0.0000E+00  0.0000E+00  0.0000E+00  0.0000E+00  0.0000E+00  0.0000E+00  0.0000E+00  0.0000E+00  0.0000E+00  0.0000E+00  0.0000E+00  0.0000E+00  0.0000E+00  0.0000E+00  0.2177E+03  0.4642E+02  0.0000E+00  0.0000E+00
REACH    1        0  1990  0.5330E+01  0.1207E+00  0.1206E+00  0.8882E-04  0.0000E+00  0.1951E+06  0.5913E+03  0.1345E+03  0.3050E+05  0.3043E+05  0.6731E+04  0.6708E+04  0.2848E+03  0.2844E+03  0.7409E+01  0.2222E+02  0.0000E+00  0.1452E-01  0.2464E+01  0.7209E+01  0.4075E+03  0.3282E+03  0.7010E+07  0.6889E+07  0.2524E+05  0.1963E+05  0.0000E+00  0.0000E+00  0.0000E+00  0.0000E+00  0.0000E+00  0.0000E+00  0.0000E+00  0.0000E+00  0.0000E+00  0.0000E+00  0.0000E+00  0.0000E+00  0.0000E+00  0.0000E+00  0.0000E+00  0.0000E+00  0.0000E+00  0.3074E+05  0.6715E+04  0.0000E+00  0.0000E+00
REACH    2        0  1990  0.1473E+01  0.2911E-01  0.2911E-01  0.9382E-05  0.0000E+00  0.4505E+05  0.4505E+05  0.1985E+05  0.7813E+04  0.7807E+04  0.1729E+04  0.1727E+04  0.7554E+02  0.7551E+02  0.0000E+00  0.4385E+01  0.0000E+00  0.0000E+00  0.2616E+00  0.7758E+00  0.8963E+02  0.8091E+02  0.1790E+07  0.1781E+07  0.9620E+04  0.7015E+04  0.0000E+00  0.0000E+00  0.0000E+00  0.0000E+00  0.0000E+00  0.0000E+00  0.0000E+00  0.0000E+00  0.0000E+00  0.0000E+00  0.0000E+00  0.0000E+00  0.0000E+00  0.0000E+00  0.0000E+00  0.0000E+00  0.0000E+00  0.7887E+04  0.1728E+04  0.0000E+00  0.0000E+00
REACH    3        0  1990  0.1377E+01  0.6374E-01  0.6373E-01  0.1329E-04  0.0000E+00  0.1120E+06  0.1120E+06  0.3186E+05  0.5309E+04  0.5305E+04  0.1172E+04  0.1171E+04  0.8333E+02  0.8331E+02  0.0000E+00  0.3024E+01  0.0000E+00  0.0000E+00  0.3134E+00  0.8544E+00  0.4251E+02  0.3976E+02  0.3330E+07  0.3310E+07  0.1972E+05  0.9480E+04  0.0000E+00  0.0000E+00  0.0000E+00  0.0000E+00  0.0000E+00  0.0000E+00  0.0000E+00  0.0000E+00  0.0000E+00  0.0000E+00  0.0000E+00  0.0000E+00  0.0000E+00  0.0000E+00  0.0000E+00  0.0000E+00  0.0000E+00  0.5391E+04  0.1172E+04  0.0000E+00  0.0000E+00
REACH    1        0     1  0.5330E+01  0.2197E+00  0.2196E+00  0.4687E-04  0.0000E+00  0.3567E+05  0.1125E+03  0.1880E+03  0.7341E+04  0.7324E+04  0.1609E+04  0.1604E+04  0.3830E+02  0.3826E+02  0.2947E+01  0.8839E+01  0.0000E+00  0.6867E-02  0.8970E+00  0.2661E+01  0.4635E+02  0.3716E+02  0.9833E+06  0.9656E+06  0.2847E+04  0.1809E+04  0.0000E+00  0.0000E+00  0.0000E+00  0.0000E+00  0.0000E+00  0.0000E+00  0.0000E+00  0.0000E+00  0.0000E+00  0.0000E+00  0.0000E+00  0.0000E+00  0.0000E+00  0.0000E+00  0.0000E+00  0.0000E+00  0.0000E+00  0.7371E+04  0.1606E+04  0.0000E+00  0.0000E+00
REACH    2        0     1  0.1473E+01  0.4741E-01  0.4740E-01  0.4027E-05  0.0000E+00  0.7248E+04  0.7248E+04  0.3954E+05  0.2037E+04  0.2035E+04  0.4460E+03  0.4455E+03  0.9834E+01  0.9831E+01  0.0000E+00  0.1125E+01  0.0000E+00  0.0000E+00  0.6869E-01  0.2060E+00  0.1413E+02  0.1284E+02  0.2024E+06  0.2013E+06  0.1297E+04  0.5263E+03  0.0000E+00  0.0000E+00  0.0000E+00  0.0000E+00  0.0000E+00  0.0000E+00  0.0000E+00  0.0000E+00  0.0000E+00  0.0000E+00  0.0000E+00  0.0000E+00  0.0000E+00  0.0000E+00  0.0000E+00  0.0000E+00  0.0000E+00  0.2046E+04  0.4457E+03  0.0000E+00  0.0000E+00
REACH    3        0     1  0.1377E+01  0.1248E+00  0.1248E+00  0.7337E-05  0.0000E+00  0.2457E+05  0.2457E+05  0.6334E+05  0.3272E+04  0.3270E+04  0.7180E+03  0.7172E+03  0.9722E+01  0.9719E+01  0.0000E+00  0.1822E+01  0.0000E+00  0.0000E+00  0.2147E+00  0.5832E+00  0.1927E+02  0.1808E+02  0.6597E+06  0.6560E+06  0.3034E+04  0.1025E+04  0.0000E+00  0.0000E+00  0.0000E+00  0.0000E+00  0.0000E+00  0.0000E+00  0.0000E+00  0.0000E+00  0.0000E+00  0.0000E+00  0.0000E+00  0.0000E+00  0.0000E+00  0.0000E+00  0.0000E+00  0.0000E+00  0.0000E+00  0.3281E+04  0.7177E+03  0.0000E+00  0.0000E+00
REACH    1        0     2  0.5330E+01  0.2737E+00  0.2736E+00  0.7027E-04  0.0000E+00  0.5619E+05  0.1345E+03  0.2078E+03  0.7204E+04  0.7192E+04  0.1587E+04  0.1583E+04  0.2646E+02  0.2640E+02  0.1070E+01  0.3210E+01  0.0000E+00  0.1587E-02  0.5785E+00  0.1687E+01  0.1223E+03  0.1090E+03  0.2144E+07  0.2114E+07  0.3365E+04  0.2254E+04  0.0000E+00  0.0000E+00  0.0000E+00  0.0000E+00  0.0000E+00  0.0000E+00  0.0000E+00  0.0000E+00  0.0000E+00  0.0000E+00  0.0000E+00  0.0000E+00  0.0000E+00  0.0000E+00  0.0000E+00  0.0000E+00  0.0000E+00  0.7221E+04  0.1585E+04  0.0000E+00  0.0000E+00
REACH    2        0     2  0.1473E+01  0.6506E-01  0.6505E-01  0.6868E-05  0.0000E+00  0.1385E+05  0.1385E+05  0.5140E+05  0.1846E+04  0.1845E+04  0.4066E+03  0.4063E+03  0.6793E+01  0.6790E+01  0.0000E+00  0.7315E+00  0.0000E+00  0.0000E+00  0.6864E-01  0.2038E+00  0.2566E+02  0.2434E+02  0.5279E+06  0.5258E+06  0.1401E+04  0.7928E+03  0.0000E+00  0.0000E+00  0.0000E+00  0.0000E+00  0.0000E+00  0.0000E+00  0.0000E+00  0.0000E+00  0.0000E+00  0.0000E+00  0.0000E+00  0.0000E+00  0.0000E+00  0.0000E+00  0.0000E+00  0.0000E+00  0.0000E+00  0.1852E+04  0.4065E+03  0.0000E+00  0.0000E+00
REACH    3        0     2  0.1377E+01  0.1321E+00  0.1321E+00  0.1067E-04  0.0000E+00  0.2314E+05  0.2314E+05  0.5859E+05  0.6776E+03  0.6771E+03  0.1502E+03  0.1501E+03  0.6813E+01  0.6812E+01  0.0000E+00  0.3387E+00  0.0000E+00  0.0000E+00  0.4581E-01  0.1242E+00  0.7185E+01  0.6863E+01  0.7183E+06  0.7146E+06  0.2870E+04  0.1130E+04  0.0000E+00  0.0000E+00  0.0000E+00  0.0000E+00  0.0000E+00  0.0000E+00  0.0000E+00  0.0000E+00  0.0000E+00  0.0000E+00  0.0000E+00  0.0000E+00  0.0000E+00  0.0000E+00  0.0000E+00  0.0000E+00  0.0000E+00  0.6843E+03  0.1502E+03  0.0000E+00  0.0000E+00
REACH    1        0     3  0.5330E+01  0.2631E+00  0.2630E+00  0.7767E-04  0.0000E+00  0.4081E+05  0.1391E+03  0.1909E+03  0.2167E+04  0.2162E+04  0.4811E+03  0.4797E+03  0.2595E+02  0.2594E+02  0.3890E+00  0.1167E+01  0.0000E+00  0.6383E-03  0.2777E+00  0.8049E+00  0.1921E+02  0.1635E+02  0.1064E+07  0.1047E+07  0.4466E+04  0.2821E+04  0.0000E+00  0.0000E+00  0.0000E+00  0.0000E+00  0.0000E+00  0.0000E+00  0.0000E+00  0.0000E+00  0.0000E+00  0.0000E+00  0.0000E+00  0.0000E+00  0.0000E+00  0.0000E+00  0.0000E+00  0.0000E+00  0.0000E+00  0.2189E+04  0.4805E+03  0.0000E+00  0.0000E+00
REACH    2        0     3  0.1473E+01  0.6673E-01  0.6673E-01  0.7184E-05  0.0000E+00  0.1200E+05  0.1200E+05  0.4650E+05  0.5990E+03  0.5986E+03  0.1333E+03  0.1331E+03  0.6471E+01  0.6470E+01  0.0000E+00  0.2789E+00  0.0000E+00  0.0000E+00  0.2888E-01  0.8455E-01  0.5044E+01  0.4717E+01  0.3255E+06  0.3240E+06  0.1832E+04  0.1084E+04  0.0000E+00  0.0000E+00  0.0000E+00  0.0000E+00  0.0000E+00  0.0000E+00  0.0000E+00  0.0000E+00  0.0000E+00  0.0000E+00  0.0000E+00  0.0000E+00  0.0000E+00  0.0000E+00  0.0000E+00  0.0000E+00  0.0000E+00  0.6053E+03  0.1332E+03  0.0000E+00  0.0000E+00
REACH    3        0     3  0.1377E+01  0.1174E+00  0.1174E+00  0.1213E-04  0.0000E+00  0.1940E+05  0.1940E+05  0.4806E+05  0.1971E+03  0.1969E+03  0.4409E+02  0.4404E+02  0.7009E+01  0.7008E+01  0.0000E+00  0.1101E+00  0.0000E+00  0.0000E+00  0.1698E-01  0.4439E-01  0.1195E+01  0.1126E+01  0.4273E+06  0.4249E+06  0.3112E+04  0.1323E+04  0.0000E+00  0.0000E+00  0.0000E+00  0.0000E+00  0.0000E+00  0.0000E+00  0.0000E+00  0.0000E+00  0.0000E+00  0.0000E+00  0.0000E+00  0.0000E+00  0.0000E+00  0.0000E+00  0.0000E+00  0.0000E+00  0.0000E+00  0.2040E+03  0.4409E+02  0.0000E+00  0.0000E+00
REACH    1        0     4  0.5330E+01  0.2139E+00  0.2138E+00  0.8376E-04  0.0000E+00  0.8002E+04  0.1040E+03  0.1868E+03  0.2007E+03  0.2002E+03  0.4495E+02  0.4480E+02  0.1592E+02  0.1592E+02  0.4483E-01  0.1345E+00  0.0000E+00  0.2888E-04  0.3024E-01  0.8042E-01  0.5011E+00  0.4011E+00  0.1302E+06  0.1279E+06  0.5200E+04  0.4737E+04  0.0000E+00  0.0000E+00  0.0000E+00  0.0000E+00  0.0000E+00  0.0000E+00  0.0000E+00  0.0000E+00  0.0000E+00  0.0000E+00  0.0000E+00  0.0000E+00  0.0000E+00  0.0000E+00  0.0000E+00  0.0000E+00  0.0000E+00  0.2163E+03  0.4488E+02  0.0000E+00  0.0000E+00
REACH    2        0     4  0.1473E+01  0.5704E-01  0.5703E-01  0.9140E-05  0.0000E+00  0.2380E+04  0.2380E+04  0.1288E+05  0.4908E+02  0.4904E+02  0.1107E+02  0.1105E+02  0.3947E+01  0.3946E+01  0.0000E+00  0.2953E-01  0.0000E+00  0.0000E+00  0.2592E-02  0.7200E-02  0.1265E+00  0.1156E+00  0.3808E+05  0.3788E+05  0.1685E+04  0.1347E+04  0.0000E+00  0.0000E+00  0.0000E+00  0.0000E+00  0.0000E+00  0.0000E+00  0.0000E+00  0.0000E+00  0.0000E+00  0.0000E+00  0.0000E+00  0.0000E+00  0.0000E+00  0.0000E+00  0.0000E+00  0.0000E+00  0.0000E+00  0.5302E+02  0.1106E+02  0.0000E+00  0.0000E+00
REACH    3        0     4  0.1377E+01  0.8834E-01  0.8832E-01  0.1294E-04  0.0000E+00  0.3932E+04  0.3932E+04  0.1378E+05  0.1505E+02  0.1503E+02  0.3439E+01  0.3435E+01  0.4894E+01  0.4893E+01  0.0000E+00  0.1530E-01  0.0000E+00  0.0000E+00  0.1969E-02  0.4558E-02  0.2974E-01  0.2750E-01  0.6211E+05  0.6171E+05  0.2554E+04  0.1887E+04  0.0000E+00  0.0000E+00  0.0000E+00  0.0000E+00  0.0000E+00  0.0000E+00  0.0000E+00  0.0000E+00  0.0000E+00  0.0000E+00  0.0000E+00  0.0000E+00  0.0000E+00  0.0000E+00  0.0000E+00  0.0000E+00  0.0000E+00  0.1994E+02  0.3440E+01  0.0000E+00  0.0000E+00
REACH    1        0     5  0.5330E+01  0.1688E+00  0.1687E+00  0.1184E-03  0.0000E+00  0.4736E+03  0.7426E+02  0.1633E+03  0.5620E+01  0.5602E+01  0.1266E+01  0.1260E+01  0.8798E+01  0.8792E+01  0.1331E-01  0.3989E-01  0.0000E+00  0.0000E+00  0.9809E-03  0.2693E-02  0.5615E-03  0.3968E-03  0.2301E+04  0.2256E+04  0.5044E+04  0.4979E+04  0.0000E+00  0.0000E+00  0.0000E+00  0.0000E+00  0.0000E+00  0.0000E+00  0.0000E+00  0.0000E+00  0.0000E+00  0.0000E+00  0.0000E+00  0.0000E+00  0.0000E+00  0.0000E+00  0.0000E+00  0.0000E+00  0.0000E+00  0.1443E+02  0.1263E+01  0.0000E+00  0.0000E+00
REACH    2        0     5  0.1473E+01  0.4827E-01  0.4826E-01  0.1301E-04  0.0000E+00  0.1615E+03  0.1615E+03  0.1119E+04  0.2549E+01  0.2546E+01  0.5756E+00  0.5748E+00  0.2231E+01  0.2230E+01  0.0000E+00  0.6227E-02  0.0000E+00  0.0000E+00  0.1021E-03  0.2599E-03  0.3941E-03  0.3476E-03  0.6859E+03  0.6817E+03  0.1531E+04  0.1449E+04  0.0000E+00  0.0000E+00  0.0000E+00  0.0000E+00  0.0000E+00  0.0000E+00  0.0000E+00  0.0000E+00  0.0000E+00  0.0000E+00  0.0000E+00  0.0000E+00  0.0000E+00  0.0000E+00  0.0000E+00  0.0000E+00  0.0000E+00  0.4782E+01  0.5750E+00  0.0000E+00  0.0000E+00
REACH    3        0     5  0.1377E+01  0.6267E-01  0.6265E-01  0.1809E-04  0.0000E+00  0.2818E+03  0.2818E+03  0.1413E+04  0.7947E+00  0.7936E+00  0.1824E+00  0.1820E+00  0.3277E+01  0.3276E+01  0.0000E+00  0.7079E-02  0.0000E+00  0.0000E+00  0.1171E-03  0.2383E-03  0.1147E-03  0.1013E-03  0.1534E+04  0.1522E+04  0.1956E+04  0.1816E+04  0.0000E+00  0.0000E+00  0.0000E+00  0.0000E+00  0.0000E+00  0.0000E+00  0.0000E+00  0.0000E+00  0.0000E+00  0.0000E+00  0.0000E+00  0.0000E+00  0.0000E+00  0.0000E+00  0.0000E+00  0.0000E+00  0.0000E+00  0.4077E+01  0.1823E+00  0.0000E+00  0.0000E+00
REACH    1        0     6  0.5330E+01  0.1222E+00  0.1220E+00  0.1409E-03  0.0000E+00  0.1087E-05  0.4586E+02  0.1450E+03  0.7375E-05  0.0000E+00  0.2107E-04  0.0000E+00  0.3433E+01  0.3429E+01  0.1040E-01  0.3117E-01  0.0000E+00  0.0000E+00  0.7011E-05  0.0000E+00  0.2259E-18  0.0000E+00  0.0000E+00  0.0000E+00  0.3718E+04  0.3732E+04  0.0000E+00  0.0000E+00  0.0000E+00  0.0000E+00  0.0000E+00  0.0000E+00  0.0000E+00  0.0000E+00  0.0000E+00  0.0000E+00  0.0000E+00  0.0000E+00  0.0000E+00  0.0000E+00  0.0000E+00  0.0000E+00  0.0000E+00  0.3461E+01  0.0000E+00  0.0000E+00  0.0000E+00
REACH    2        0     6  0.1473E+01  0.3844E-01  0.3842E-01  0.1553E-04  0.0000E+00  0.3805E-06  0.3805E-06  0.3840E-05  0.4433E-05  0.0000E+00  0.1299E-04  0.0000E+00  0.8514E+00  0.8511E+00  0.0000E+00  0.4456E-02  0.0000E+00  0.0000E+00  0.4327E-05  0.0000E+00  0.8204E-19  0.0000E+00  0.0000E+00  0.0000E+00  0.1200E+04  0.1175E+04  0.0000E+00  0.0000E+00  0.0000E+00  0.0000E+00  0.0000E+00  0.0000E+00  0.0000E+00  0.0000E+00  0.0000E+00  0.0000E+00  0.0000E+00  0.0000E+00  0.0000E+00  0.0000E+00  0.0000E+00  0.0000E+00  0.0000E+00  0.8555E+00  0.0000E+00  0.0000E+00  0.0000E+00
REACH    3        0     6  0.1377E+01  0.3781E-01  0.3779E-01  0.2112E-04  0.0000E+00  0.4506E-06  0.4506E-06  0.4746E-05  0.4545E-05  0.0000E+00  0.1213E-04  0.0000E+00  0.1422E+01  0.1422E+01  0.0000E+00  0.5945E-02  0.0000E+00  0.0000E+00  0.4012E-05  0.0000E+00  0.2845E-18  0.0000E+00  0.0000E+00  0.0000E+00  0.1164E+04  0.1156E+04  0.0000E+00  0.0000E+00  0.0000E+00  0.0000E+00  0.0000E+00  0.0000E+00  0.0000E+00  0.0000E+00  0.0000E+00  0.0000E+00  0.0000E+00  0.0000E+00  0.0000E+00  0.0000E+00  0.0000E+00  0.0000E+00  0.0000E+00  0.1428E+01  0.0000E+00  0.0000E+00  0.0000E+00
REACH    1        0     7  0.5330E+01  0.8232E-01  0.8216E-01  0.1538E-03  0.0000E+00  0.1124E-05  0.2490E+02  0.1125E+03  0.7237E-05  0.0000E+00  0.2171E-04  0.0000E+00  0.1267E+01  0.1265E+01  0.1013E-01  0.3033E-01  0.0000E+00  0.0000E+00  0.7245E-05  0.0000E+00  0.3908E-18  0.0000E+00  0.0000E+00  0.0000E+00  0.2624E+04  0.2635E+04  0.0000E+00  0.0000E+00  0.0000E+00  0.0000E+00  0.0000E+00  0.0000E+00  0.0000E+00  0.0000E+00  0.0000E+00  0.0000E+00  0.0000E+00  0.0000E+00  0.0000E+00  0.0000E+00  0.0000E+00  0.0000E+00  0.0000E+00  0.1295E+01  0.0000E+00  0.0000E+00  0.0000E+00
REACH    2        0     7  0.1473E+01  0.2938E-01  0.2936E-01  0.1660E-04  0.0000E+00  0.3932E-06  0.3932E-06  0.5033E-05  0.4466E-05  0.0000E+00  0.1340E-04  0.0000E+00  0.3236E+00  0.3235E+00  0.0000E+00  0.4354E-02  0.0000E+00  0.0000E+00  0.4471E-05  0.0000E+00  0.1407E-18  0.0000E+00  0.0000E+00  0.0000E+00  0.9613E+03  0.9415E+03  0.0000E+00  0.0000E+00  0.0000E+00  0.0000E+00  0.0000E+00  0.0000E+00  0.0000E+00  0.0000E+00  0.0000E+00  0.0000E+00  0.0000E+00  0.0000E+00  0.0000E+00  0.0000E+00  0.0000E+00  0.0000E+00  0.0000E+00  0.3278E+00  0.0000E+00  0.0000E+00  0.0000E+00
REACH    3        0     7  0.1377E+01  0.1786E-01  0.1783E-01  0.2235E-04  0.0000E+00  0.4657E-06  0.4657E-06  0.1144E-04  0.4139E-05  0.0000E+00  0.1242E-04  0.0000E+00  0.5075E+00  0.5068E+00  0.0000E+00  0.5777E-02  0.0000E+00  0.0000E+00  0.4143E-05  0.0000E+00  0.1829E-17  0.0000E+00  0.0000E+00  0.0000E+00  0.5766E+03  0.5721E+03  0.0000E+00  0.0000E+00  0.0000E+00  0.0000E+00  0.0000E+00  0.0000E+00  0.0000E+00  0.0000E+00  0.0000E+00  0.0000E+00  0.0000E+00  0.0000E+00  0.0000E+00  0.0000E+00  0.0000E+00  0.0000E+00  0.0000E+00  0.5126E+00  0.0000E+00  0.0000E+00  0.0000E+00
REACH    1        0     8  0.5330E+01  0.5850E-01  0.5838E-01  0.1134E-03  0.0000E+00  0.3845E+03  0.1799E+02  0.1149E+03  0.4272E-01  0.4247E-01  0.1529E-01  0.1516E-01  0.1724E+01  0.1720E+01  0.1091E-01  0.3267E-01  0.0000E+00  0.0000E+00  0.3819E-03  0.1086E-02  0.7528E-05  0.3000E-06  0.3945E+04  0.3820E+04  0.1665E+04  0.1284E+04  0.0000E+00  0.0000E+00  0.0000E+00  0.0000E+00  0.0000E+00  0.0000E+00  0.0000E+00  0.0000E+00  0.0000E+00  0.0000E+00  0.0000E+00  0.0000E+00  0.0000E+00  0.0000E+00  0.0000E+00  0.0000E+00  0.0000E+00  0.1795E+01  0.1625E-01  0.0000E+00  0.0000E+00
REACH    2        0     8  0.1473E+01  0.2215E-01  0.2214E-01  0.1241E-04  0.0000E+00  0.8046E+00  0.8046E+00  0.1221E+02  0.3364E-02  0.3355E-02  0.7872E-03  0.7726E-03  0.2282E+00  0.2281E+00  0.0000E+00  0.4672E-02  0.0000E+00  0.0000E+00  0.4676E-05  0.0000E+00  0.4349E-09  0.0000E+00  0.9829E-01  0.9740E-01  0.7072E+03  0.6926E+03  0.0000E+00  0.0000E+00  0.0000E+00  0.0000E+00  0.0000E+00  0.0000E+00  0.0000E+00  0.0000E+00  0.0000E+00  0.0000E+00  0.0000E+00  0.0000E+00  0.0000E+00  0.0000E+00  0.0000E+00  0.0000E+00  0.0000E+00  0.2361E+00  0.7726E-03  0.0000E+00  0.0000E+00
REACH    3        0     8  0.1377E+01  0.1011E-01  0.1009E-01  0.1651E-04  0.0000E+00  0.3836E+03  0.3836E+03  0.1292E+05  0.3951E-01  0.3935E-01  0.1458E-01  0.1450E-01  0.1328E+01  0.1326E+01  0.0000E+00  0.6240E-02  0.0000E+00  0.0000E+00  0.1280E-03  0.3747E-03  0.3616E-04  0.7528E-05  0.4056E+04  0.3945E+04  0.3035E+03  0.1612E+03  0.0000E+00  0.0000E+00  0.0000E+00  0.0000E+00  0.0000E+00  0.0000E+00  0.0000E+00  0.0000E+00  0.0000E+00  0.0000E+00  0.0000E+00  0.0000E+00  0.0000E+00  0.0000E+00  0.0000E+00  0.0000E+00  0.0000E+00  0.1371E+01  0.1487E-01  0.0000E+00  0.0000E+00
REACH    1        0     9  0.5330E+01  0.6292E-01  0.6282E-01  0.9414E-04  0.0000E+00  0.3195E+04  0.1823E+02  0.1125E+03  0.5558E+00  0.5524E+00  0.1584E+00  0.1571E+00  0.4363E+01  0.4357E+01  0.1118E-01  0.3348E-01  0.0000E+00  0.0000E+00  0.2018E-02  0.5816E-02  0.1010E-02  0.2075E-03  0.5844E+05  0.5628E+05  0.1360E+04  0.7669E+03  0.0000E+00  0.0000E+00  0.0000E+00  0.0000E+00  0.0000E+00  0.0000E+00  0.0000E+00  0.0000E+00  0.0000E+00  0.0000E+00  0.0000E+00  0.0000E+00  0.0000E+00  0.0000E+00  0.0000E+00  0.0000E+00  0.0000E+00  0.4943E+01  0.1629E+00  0.0000E+00  0.0000E+00
REACH    2        0     9  0.1473E+01  0.1767E-01  0.1766E-01  0.1022E-04  0.0000E+00  0.2182E+02  0.2182E+02  0.4955E+03  0.1049E+00  0.1047E+00  0.2416E-01  0.2407E-01  0.7632E+00  0.7628E+00  0.0000E+00  0.4640E-02  0.0000E+00  0.0000E+00  0.1277E-04  0.1928E-04  0.1786E-04  0.1117E-04  0.1030E+03  0.1016E+03  0.5461E+03  0.5166E+03  0.0000E+00  0.0000E+00  0.0000E+00  0.0000E+00  0.0000E+00  0.0000E+00  0.0000E+00  0.0000E+00  0.0000E+00  0.0000E+00  0.0000E+00  0.0000E+00  0.0000E+00  0.0000E+00  0.0000E+00  0.0000E+00  0.0000E+00  0.8721E+00  0.2409E-01  0.0000E+00  0.0000E+00
REACH    3        0     9  0.1377E+01  0.2571E-01  0.2570E-01  0.1407E-04  0.0000E+00  0.3173E+04  0.3173E+04  0.3932E+05  0.4520E+00  0.4511E+00  0.1347E+00  0.1343E+00  0.3533E+01  0.3531E+01  0.0000E+00  0.6538E-02  0.0000E+00  0.0000E+00  0.1169E-02  0.1991E-02  0.1321E-02  0.9990E-03  0.5902E+05  0.5834E+05  0.6626E+03  0.2580E+03  0.0000E+00  0.0000E+00  0.0000E+00  0.0000E+00  0.0000E+00  0.0000E+00  0.0000E+00  0.0000E+00  0.0000E+00  0.0000E+00  0.0000E+00  0.0000E+00  0.0000E+00  0.0000E+00  0.0000E+00  0.0000E+00  0.0000E+00  0.3989E+01  0.1363E+00  0.0000E+00  0.0000E+00
REACH    1        0    10  0.5330E+01  0.7792E-01  0.7785E-01  0.7045E-04  0.0000E+00  0.1260E+05  0.2201E+02  0.1024E+03  0.6342E+02  0.6319E+02  0.1432E+02  0.1424E+02  0.7348E+01  0.7341E+01  0.2850E-01  0.8543E-01  0.0000E+00  0.4124E-04  0.1057E-01  0.2947E-01  0.5297E+00  0.3169E+00  0.3631E+06  0.3533E+06  0.1400E+04  0.9585E+03  0.0000E+00  0.0000E+00  0.0000E+00  0.0000E+00  0.0000E+00  0.0000E+00  0.0000E+00  0.0000E+00  0.0000E+00  0.0000E+00  0.0000E+00  0.0000E+00  0.0000E+00  0.0000E+00  0.0000E+00  0.0000E+00  0.0000E+00  0.7062E+02  0.1427E+02  0.0000E+00  0.0000E+00
REACH    2        0    10  0.1473E+01  0.1728E-01  0.1727E-01  0.7542E-05  0.0000E+00  0.1906E+04  0.1906E+04  0.1853E+05  0.1897E+02  0.1895E+02  0.4308E+01  0.4301E+01  0.1719E+01  0.1718E+01  0.0000E+00  0.1747E-01  0.0000E+00  0.0000E+00  0.8830E-03  0.2543E-02  0.1660E+00  0.1326E+00  0.5879E+05  0.5838E+05  0.5178E+03  0.4131E+03  0.0000E+00  0.0000E+00  0.0000E+00  0.0000E+00  0.0000E+00  0.0000E+00  0.0000E+00  0.0000E+00  0.0000E+00  0.0000E+00  0.0000E+00  0.0000E+00  0.0000E+00  0.0000E+00  0.0000E+00  0.0000E+00  0.0000E+00  0.2069E+02  0.4304E+01  0.0000E+00  0.0000E+00
REACH    3        0    10  0.1377E+01  0.4538E-01  0.4537E-01  0.1071E-04  0.0000E+00  0.1013E+05  0.1013E+05  0.4050E+05  0.7368E+01  0.7362E+01  0.1726E+01  0.1724E+01  0.5511E+01  0.5509E+01  0.0000E+00  0.1103E-01  0.0000E+00  0.0000E+00  0.2651E-02  0.4636E-02  0.1921E+00  0.1726E+00  0.2901E+06  0.2880E+06  0.1212E+04  0.5262E+03  0.0000E+00  0.0000E+00  0.0000E+00  0.0000E+00  0.0000E+00  0.0000E+00  0.0000E+00  0.0000E+00  0.0000E+00  0.0000E+00  0.0000E+00  0.0000E+00  0.0000E+00  0.0000E+00  0.0000E+00  0.0000E+00  0.0000E+00  0.1288E+02  0.1729E+01  0.0000E+00  0.0000E+00
REACH    1        0    11  0.5330E+01  0.9955E-01  0.9949E-01  0.6141E-04  0.0000E+00  0.1642E+05  0.3276E+02  0.1202E+03  0.1697E+03  0.1693E+03  0.3808E+02  0.3794E+02  0.1234E+02  0.1233E+02  0.3487E-01  0.1046E+00  0.0000E+00  0.0000E+00  0.3156E-01  0.7788E-01  0.3954E+01  0.3016E+01  0.5736E+06  0.5614E+06  0.1145E+04  0.5725E+03  0.0000E+00  0.0000E+00  0.0000E+00  0.0000E+00  0.0000E+00  0.0000E+00  0.0000E+00  0.0000E+00  0.0000E+00  0.0000E+00  0.0000E+00  0.0000E+00  0.0000E+00  0.0000E+00  0.0000E+00  0.0000E+00  0.0000E+00  0.1818E+03  0.3801E+02  0.0000E+00  0.0000E+00
REACH    2        0    11  0.1473E+01  0.1972E-01  0.1972E-01  0.6103E-05  0.0000E+00  0.2291E+04  0.2291E+04  0.2227E+05  0.2607E+02  0.2605E+02  0.5906E+01  0.5898E+01  0.3803E+01  0.3801E+01  0.0000E+00  0.2008E-01  0.0000E+00  0.0000E+00  0.1829E-02  0.4878E-02  0.4205E+00  0.3657E+00  0.9176E+05  0.9119E+05  0.5392E+03  0.3641E+03  0.0000E+00  0.0000E+00  0.0000E+00  0.0000E+00  0.0000E+00  0.0000E+00  0.0000E+00  0.0000E+00  0.0000E+00  0.0000E+00  0.0000E+00  0.0000E+00  0.0000E+00  0.0000E+00  0.0000E+00  0.0000E+00  0.0000E+00  0.2987E+02  0.5903E+01  0.0000E+00  0.0000E+00
REACH    3        0    11  0.1377E+01  0.6427E-01  0.6426E-01  0.9060E-05  0.0000E+00  0.1219E+05  0.1219E+05  0.4848E+05  0.1524E+02  0.1523E+02  0.3489E+01  0.3485E+01  0.6555E+01  0.6554E+01  0.0000E+00  0.1479E-01  0.0000E+00  0.0000E+00  0.4530E-02  0.7003E-02  0.4075E+00  0.3757E+00  0.3618E+06  0.3594E+06  0.1579E+04  0.3988E+03  0.0000E+00  0.0000E+00  0.0000E+00  0.0000E+00  0.0000E+00  0.0000E+00  0.0000E+00  0.0000E+00  0.0000E+00  0.0000E+00  0.0000E+00  0.0000E+00  0.0000E+00  0.0000E+00  0.0000E+00  0.0000E+00  0.0000E+00  0.2180E+02  0.3492E+01  0.0000E+00  0.0000E+00
REACH    1        0    12  0.5330E+01  0.1425E+00  0.1425E+00  0.3995E-04  0.0000E+00  0.3008E+05  0.6046E+02  0.1552E+03  0.2685E+03  0.2679E+03  0.6023E+02  0.6001E+02  0.2041E+02  0.2040E+02  0.5744E-01  0.1723E+00  0.0000E+00  0.0000E+00  0.4451E-01  0.1113E+00  0.3985E+01  0.2982E+01  0.9837E+06  0.9635E+06  0.1527E+04  0.9861E+03  0.0000E+00  0.0000E+00  0.0000E+00  0.0000E+00  0.0000E+00  0.0000E+00  0.0000E+00  0.0000E+00  0.0000E+00  0.0000E+00  0.0000E+00  0.0000E+00  0.0000E+00  0.0000E+00  0.0000E+00  0.0000E+00  0.0000E+00  0.2885E+03  0.6012E+02  0.0000E+00  0.0000E+00
REACH    2        0    12  0.1473E+01  0.2735E-01  0.2734E-01  0.3875E-05  0.0000E+00  0.6481E+04  0.6481E+04  0.3855E+05  0.6454E+02  0.6449E+02  0.1460E+02  0.1459E+02  0.6255E+01  0.6254E+01  0.0000E+00  0.4261E-01  0.0000E+00  0.0000E+00  0.3132E-02  0.8365E-02  0.9161E+00  0.8082E+00  0.2316E+06  0.2302E+06  0.7164E+03  0.3051E+03  0.0000E+00  0.0000E+00  0.0000E+00  0.0000E+00  0.0000E+00  0.0000E+00  0.0000E+00  0.0000E+00  0.0000E+00  0.0000E+00  0.0000E+00  0.0000E+00  0.0000E+00  0.0000E+00  0.0000E+00  0.0000E+00  0.0000E+00  0.7079E+02  0.1460E+02  0.0000E+00  0.0000E+00
REACH    3        0    12  0.1377E+01  0.9512E-01  0.9511E-01  0.6033E-05  0.0000E+00  0.2038E+05  0.2038E+05  0.6713E+05  0.1457E+02  0.1456E+02  0.3311E+01  0.3307E+01  0.7556E+01  0.7556E+01  0.0000E+00  0.1484E-01  0.0000E+00  0.0000E+00  0.8817E-02  0.1264E-01  0.1752E+00  0.1622E+00  0.6049E+06  0.6012E+06  0.2176E+04  0.7114E+03  0.0000E+00  0.0000E+00  0.0000E+00  0.0000E+00  0.0000E+00  0.0000E+00  0.0000E+00  0.0000E+00  0.0000E+00  0.0000E+00  0.0000E+00  0.0000E+00  0.0000E+00  0.0000E+00  0.0000E+00  0.0000E+00  0.0000E+00  0.2213E+02  0.3320E+01  0.0000E+00  0.0000E+00
REACH    1        0  1991  0.5330E+01  0.1472E+00  0.1472E+00  0.8916E-04  0.0000E+00  0.2038E+06  0.7866E+03  0.1490E+03  0.1742E+05  0.1738E+05  0.3837E+04  0.3825E+04  0.1663E+03  0.1661E+03  0.4628E+01  0.1388E+02  0.0000E+00  0.9162E-02  0.1873E+01  0.5461E+01  0.1968E+03  0.1692E+03  0.6307E+07  0.6196E+07  0.3436E+05  0.2754E+05  0.0000E+00  0.0000E+00  0.0000E+00  0.0000E+00  0.0000E+00  0.0000E+00  0.0000E+00  0.0000E+00  0.0000E+00  0.0000E+00  0.0000E+00  0.0000E+00  0.0000E+00  0.0000E+00  0.0000E+00  0.0000E+00  0.0000E+00  0.1756E+05  0.3830E+04  0.0000E+00  0.0000E+00
REACH    2        0  1991  0.1473E+01  0.3769E-01  0.3768E-01  0.9368E-05  0.0000E+00  0.4635E+05  0.4635E+05  0.1898E+05  0.4643E+04  0.4640E+04  0.1022E+04  0.1021E+04  0.4322E+02  0.4321E+02  0.0000E+00  0.2270E+01  0.0000E+00  0.0000E+00  0.1748E+00  0.5176E+00  0.4647E+02  0.4332E+02  0.1477E+07  0.1470E+07  0.1293E+05  0.9607E+04  0.0000E+00  0.0000E+00  0.0000E+00  0.0000E+00  0.0000E+00  0.0000E+00  0.0000E+00  0.0000E+00  0.0000E+00  0.0000E+00  0.0000E+00  0.0000E+00  0.0000E+00  0.0000E+00  0.0000E+00  0.0000E+00  0.0000E+00  0.4685E+04  0.1022E+04  0.0000E+00  0.0000E+00
REACH    3        0  1991  0.1377E+01  0.6774E-01  0.6772E-01  0.1340E-04  0.0000E+00  0.1176E+06  0.1176E+06  0.3250E+05  0.4200E+04  0.4197E+04  0.9246E+03  0.9236E+03  0.5813E+02  0.5811E+02  0.0000E+00  0.2358E+01  0.0000E+00  0.0000E+00  0.2969E+00  0.7833E+00  0.2846E+02  0.2681E+02  0.3189E+07  0.3169E+07  0.2120E+05  0.1097E+05  0.0000E+00  0.0000E+00  0.0000E+00  0.0000E+00  0.0000E+00  0.0000E+00  0.0000E+00  0.0000E+00  0.0000E+00  0.0000E+00  0.0000E+00  0.0000E+00  0.0000E+00  0.0000E+00  0.0000E+00  0.0000E+00  0.0000E+00  0.4258E+04  0.9244E+03  0.0000E+00  0.0000E+00
REACH    1        0     1  0.5330E+01  0.2021E+00  0.2021E+00  0.5260E-04  0.0000E+00  0.6401E+05  0.1002E+03  0.1720E+03  0.1027E+05  0.1025E+05  0.2250E+04  0.2244E+04  0.2609E+02  0.2597E+02  0.3347E+01  0.1004E+02  0.0000E+00  0.4785E-02  0.1128E+01  0.3312E+01  0.1823E+03  0.1560E+03  0.2553E+07  0.2513E+07  0.2271E+04  0.1386E+04  0.0000E+00  0.0000E+00  0.0000E+00  0.0000E+00  0.0000E+00  0.0000E+00  0.0000E+00  0.0000E+00  0.0000E+00  0.0000E+00  0.0000E+00  0.0000E+00  0.0000E+00  0.0000E+00  0.0000E+00  0.0000E+00  0.0000E+00  0.1028E+05  0.2247E+04  0.0000E+00  0.0000E+00
REACH    2        0     1  0.1473E+01  0.4230E-01  0.4230E-01  0.5555E-05  0.0000E+00  0.1582E+05  0.1582E+05  0.4305E+05  0.3145E+04  0.3143E+04  0.6889E+03  0.6882E+03  0.7796E+01  0.7786E+01  0.0000E+00  0.1496E+01  0.0000E+00  0.0000E+00  0.1063E+00  0.3178E+00  0.5787E+02  0.5395E+02  0.6844E+06  0.6812E+06  0.9974E+03  0.5905E+03  0.0000E+00  0.0000E+00  0.0000E+00  0.0000E+00  0.0000E+00  0.0000E+00  0.0000E+00  0.0000E+00  0.0000E+00  0.0000E+00  0.0000E+00  0.0000E+00  0.0000E+00  0.0000E+00  0.0000E+00  0.0000E+00  0.0000E+00  0.3152E+04  0.6886E+03  0.0000E+00  0.0000E+00
REACH    3        0     1  0.1377E+01  0.1217E+00  0.1217E+00  0.8324E-05  0.0000E+00  0.3642E+05  0.3642E+05  0.6950E+05  0.3643E+04  0.3641E+04  0.7995E+03  0.7987E+03  0.7138E+01  0.7129E+01  0.0000E+00  0.1851E+01  0.0000E+00  0.0000E+00  0.2515E+00  0.6270E+00  0.5159E+02  0.4907E+02  0.1244E+07  0.1237E+07  0.2710E+04  0.8764E+03  0.0000E+00  0.0000E+00  0.0000E+00  0.0000E+00  0.0000E+00  0.0000E+00  0.0000E+00  0.0000E+00  0.0000E+00  0.0000E+00  0.0000E+00  0.0000E+00  0.0000E+00  0.0000E+00  0.0000E+00  0.0000E+00  0.0000E+00  0.3650E+04  0.7993E+03  0.0000E+00  0.0000E+00
REACH    1        0     2  0.5330E+01  0.1996E+00  0.1995E+00  0.5206E-04  0.0000E+00  0.4051E+05  0.9112E+02  0.1758E+03  0.2327E+04  0.2322E+04  0.5155E+03  0.5140E+03  0.2036E+02  0.2034E+02  0.4581E+00  0.1374E+01  0.0000E+00  0.6710E-03  0.2070E+00  0.5848E+00  0.3359E+02  0.2851E+02  0.1307E+07  0.1286E+07  0.2479E+04  0.1753E+04  0.0000E+00  0.0000E+00  0.0000E+00  0.0000E+00  0.0000E+00  0.0000E+00  0.0000E+00  0.0000E+00  0.0000E+00  0.0000E+00  0.0000E+00  0.0000E+00  0.0000E+00  0.0000E+00  0.0000E+00  0.0000E+00  0.0000E+00  0.2344E+04  0.5145E+03  0.0000E+00  0.0000E+00
REACH    2        0     2  0.1473E+01  0.4434E-01  0.4434E-01  0.5473E-05  0.0000E+00  0.9187E+04  0.9187E+04  0.4232E+05  0.6320E+03  0.6316E+03  0.1404E+03  0.1403E+03  0.5951E+01  0.5950E+01  0.0000E+00  0.3035E+00  0.0000E+00  0.0000E+00  0.2363E-01  0.6944E-01  0.8004E+01  0.7452E+01  0.3238E+06  0.3223E+06  0.1081E+04  0.5157E+03  0.0000E+00  0.0000E+00  0.0000E+00  0.0000E+00  0.0000E+00  0.0000E+00  0.0000E+00  0.0000E+00  0.0000E+00  0.0000E+00  0.0000E+00  0.0000E+00  0.0000E+00  0.0000E+00  0.0000E+00  0.0000E+00  0.0000E+00  0.6379E+03  0.1403E+03  0.0000E+00  0.0000E+00
REACH    3        0     2  0.1377E+01  0.1127E+00  0.1127E+00  0.8254E-05  0.0000E+00  0.2296E+05  0.2296E+05  0.5916E+05  0.2806E+03  0.2804E+03  0.6332E+02  0.6325E+02  0.5491E+01  0.5490E+01  0.0000E+00  0.1545E+00  0.0000E+00  0.0000E+00  0.2339E-01  0.5311E-01  0.3076E+01  0.2916E+01  0.6103E+06  0.6068E+06  0.2647E+04  0.9914E+03  0.0000E+00  0.0000E+00  0.0000E+00  0.0000E+00  0.0000E+00  0.0000E+00  0.0000E+00  0.0000E+00  0.0000E+00  0.0000E+00  0.0000E+00  0.0000E+00  0.0000E+00  0.0000E+00  0.0000E+00  0.0000E+00  0.0000E+00  0.2861E+03  0.6330E+02  0.0000E+00  0.0000E+00
REACH    1        0     3  0.5330E+01  0.1981E+00  0.1980E+00  0.1057E-03  0.0000E+00  0.3004E+05  0.9695E+02  0.1770E+03  0.1768E+04  0.1765E+04  0.3920E+03  0.3909E+03  0.2109E+02  0.2107E+02  0.2383E+00  0.7148E+00  0.0000E+00  0.3712E-03  0.1086E+00  0.3167E+00  0.3256E+02  0.2869E+02  0.1067E+07  0.1052E+07  0.3642E+04  0.2835E+04  0.0000E+00  0.0000E+00  0.0000E+00  0.0000E+00  0.0000E+00  0.0000E+00  0.0000E+00  0.0000E+00  0.0000E+00  0.0000E+00  0.0000E+00  0.0000E+00  0.0000E+00  0.0000E+00  0.0000E+00  0.0000E+00  0.0000E+00  0.1787E+04  0.3912E+03  0.0000E+00  0.0000E+00
REACH    2        0     3  0.1473E+01  0.4654E-01  0.4653E-01  0.1122E-04  0.0000E+00  0.6674E+04  0.6674E+04  0.2410E+05  0.3262E+03  0.3260E+03  0.7267E+02  0.7260E+02  0.5820E+01  0.5819E+01  0.0000E+00  0.1525E+00  0.0000E+00  0.0000E+00  0.9973E-02  0.2948E-01  0.3533E+01  0.3296E+01  0.2136E+06  0.2127E+06  0.1334E+04  0.9751E+03  0.0000E+00  0.0000E+00  0.0000E+00  0.0000E+00  0.0000E+00  0.0000E+00  0.0000E+00  0.0000E+00  0.0000E+00  0.0000E+00  0.0000E+00  0.0000E+00  0.0000E+00  0.0000E+00  0.0000E+00  0.0000E+00  0.0000E+00  0.3320E+03  0.7263E+02  0.0000E+00  0.0000E+00
REACH    3        0     3  0.1377E+01  0.1014E+00  0.1014E+00  0.1601E-04  0.0000E+00  0.1221E+05  0.1221E+05  0.2916E+05  0.1583E+03  0.1582E+03  0.3548E+02  0.3545E+02  0.5944E+01  0.5943E+01  0.0000E+00  0.8584E-01  0.0000E+00  0.0000E+00  0.7660E-02  0.1961E-01  0.1956E+01  0.1854E+01  0.3200E+06  0.3183E+06  0.2812E+04  0.1370E+04  0.0000E+00  0.0000E+00  0.0000E+00  0.0000E+00  0.0000E+00  0.0000E+00  0.0000E+00  0.0000E+00  0.0000E+00  0.0000E+00  0.0000E+00  0.0000E+00  0.0000E+00  0.0000E+00  0.0000E+00  0.0000E+00  0.0000E+00  0.1642E+03  0.3547E+02  0.0000E+00  0.0000E+00
REACH    1        0     4  0.5330E+01  0.1653E+00  0.1652E+00  0.1069E-03  0.0000E+00  0.1175E+05  0.6772E+02  0.1543E+03  0.5095E+03  0.5084E+03  0.1134E+03  0.1130E+03  0.1263E+02  0.1262E+02  0.1023E+00  0.3069E+00  0.0000E+00  0.1960E-03  0.5541E-01  0.1416E+00  0.7543E+01  0.6199E+01  0.4319E+06  0.4247E+06  0.4194E+04  0.3885E+04  0.0000E+00  0.0000E+00  0.0000E+00  0.0000E+00  0.0000E+00  0.0000E+00  0.0000E+00  0.0000E+00  0.0000E+00  0.0000E+00  0.0000E+00  0.0000E+00  0.0000E+00  0.0000E+00  0.0000E+00  0.0000E+00  0.0000E+00  0.5213E+03  0.1131E+03  0.0000E+00  0.0000E+00
REACH    2        0     4  0.1473E+01  0.4317E-01  0.4316E-01  0.1172E-04  0.0000E+00  0.2900E+04  0.2900E+04  0.6709E+04  0.1372E+03  0.1371E+03  0.3067E+02  0.3064E+02  0.3436E+01  0.3435E+01  0.0000E+00  0.6645E-01  0.0000E+00  0.0000E+00  0.5672E-02  0.1546E-01  0.2058E+01  0.1910E+01  0.1158E+06  0.1153E+06  0.1263E+04  0.1196E+04  0.0000E+00  0.0000E+00  0.0000E+00  0.0000E+00  0.0000E+00  0.0000E+00  0.0000E+00  0.0000E+00  0.0000E+00  0.0000E+00  0.0000E+00  0.0000E+00  0.0000E+00  0.0000E+00  0.0000E+00  0.0000E+00  0.0000E+00  0.1406E+03  0.3065E+02  0.0000E+00  0.0000E+00
REACH    3        0     4  0.1377E+01  0.7806E-01  0.7804E-01  0.1655E-04  0.0000E+00  0.4602E+04  0.4602E+04  0.9301E+04  0.5424E+02  0.5419E+02  0.1221E+02  0.1219E+02  0.4256E+01  0.4255E+01  0.0000E+00  0.3588E-01  0.0000E+00  0.0000E+00  0.2617E-02  0.6141E-02  0.6883E+00  0.6410E+00  0.1388E+06  0.1380E+06  0.2262E+04  0.1771E+04  0.0000E+00  0.0000E+00  0.0000E+00  0.0000E+00  0.0000E+00  0.0000E+00  0.0000E+00  0.0000E+00  0.0000E+00  0.0000E+00  0.0000E+00  0.0000E+00  0.0000E+00  0.0000E+00  0.0000E+00  0.0000E+00  0.0000E+00  0.5848E+02  0.1220E+02  0.0000E+00  0.0000E+00
REACH    1        0     5  0.5330E+01  0.1196E+00  0.1194E+00  0.1911E-03  0.0000E+00  0.1207E+03  0.4607E+02  0.1439E+03  0.2095E+00  0.2085E+00  0.4696E-01  0.4662E-01  0.5914E+01  0.5905E+01  0.1138E-01  0.3409E-01  0.0000E+00  0.0000E+00  0.8172E-03  0.1700E-02  0.8931E-05  0.4851E-05  0.5759E+03  0.5580E+03  0.3628E+04  0.3581E+04  0.0000E+00  0.0000E+00  0.0000E+00  0.0000E+00  0.0000E+00  0.0000E+00  0.0000E+00  0.0000E+00  0.0000E+00  0.0000E+00  0.0000E+00  0.0000E+00  0.0000E+00  0.0000E+00  0.0000E+00  0.0000E+00  0.0000E+00  0.6148E+01  0.4832E-01  0.0000E+00  0.0000E+00
REACH    2        0     5  0.1473E+01  0.3340E-01  0.3338E-01  0.2064E-04  0.0000E+00  0.8452E+01  0.8452E+01  0.9021E+02  0.6590E-01  0.6579E-01  0.1498E-01  0.1494E-01  0.1560E+01  0.1559E+01  0.0000E+00  0.4840E-02  0.0000E+00  0.0000E+00  0.8009E-04  0.1558E-03  0.1688E-05  0.1183E-05  0.1311E+02  0.1302E+02  0.1057E+04  0.1023E+04  0.0000E+00  0.0000E+00  0.0000E+00  0.0000E+00  0.0000E+00  0.0000E+00  0.0000E+00  0.0000E+00  0.0000E+00  0.0000E+00  0.0000E+00  0.0000E+00  0.0000E+00  0.0000E+00  0.0000E+00  0.0000E+00  0.0000E+00  0.1629E+01  0.1510E-01  0.0000E+00  0.0000E+00
REACH    3        0     5  0.1377E+01  0.5229E-01  0.5226E-01  0.2907E-04  0.0000E+00  0.1123E+03  0.1123E+03  0.6997E+03  0.1980E-01  0.1975E-01  0.5293E-02  0.5266E-02  0.2513E+01  0.2512E+01  0.0000E+00  0.6543E-02  0.0000E+00  0.0000E+00  0.1019E-03  0.1877E-03  0.1790E-05  0.1392E-05  0.5689E+03  0.5629E+03  0.1629E+04  0.1563E+04  0.0000E+00  0.0000E+00  0.0000E+00  0.0000E+00  0.0000E+00  0.0000E+00  0.0000E+00  0.0000E+00  0.0000E+00  0.0000E+00  0.0000E+00  0.0000E+00  0.0000E+00  0.0000E+00  0.0000E+00  0.0000E+00  0.0000E+00  0.2538E+01  0.5454E-02  0.0000E+00  0.0000E+00
REACH    1        0     6  0.5330E+01  0.8137E-01  0.8122E-01  0.1524E-03  0.0000E+00  0.1087E-05  0.2282E+02  0.1072E+03  0.7184E-05  0.0000E+00  0.2104E-04  0.0000E+00  0.2107E+01  0.2103E+01  0.1023E-01  0.3063E-01  0.0000E+00  0.0000E+00  0.7011E-05  0.0000E+00  0.6667E-18  0.0000E+00  0.0000E+00  0.0000E+00  0.2483E+04  0.2489E+04  0.0000E+00  0.0000E+00  0.0000E+00  0.0000E+00  0.0000E+00  0.0000E+00  0.0000E+00  0.0000E+00  0.0000E+00  0.0000E+00  0.0000E+00  0.0000E+00  0.0000E+00  0.0000E+00  0.0000E+00  0.0000E+00  0.0000E+00  0.2133E+01  0.0000E+00  0.0000E+00  0.0000E+00
REACH    2        0     6  0.1473E+01  0.2600E-01  0.2598E-01  0.1643E-04  0.0000E+00  0.3805E-06  0.3805E-06  0.5682E-05  0.4347E-05  0.0000E+00  0.1297E-04  0.0000E+00  0.5530E+00  0.5527E+00  0.0000E+00  0.4364E-02  0.0000E+00  0.0000E+00  0.4327E-05  0.0000E+00  0.2079E-18  0.0000E+00  0.0000E+00  0.0000E+00  0.8131E+03  0.7963E+03  0.0000E+00  0.0000E+00  0.0000E+00  0.0000E+00  0.0000E+00  0.0000E+00  0.0000E+00  0.0000E+00  0.0000E+00  0.0000E+00  0.0000E+00  0.0000E+00  0.0000E+00  0.0000E+00  0.0000E+00  0.0000E+00  0.0000E+00  0.5570E+00  0.0000E+00  0.0000E+00  0.0000E+00
REACH    3        0     6  0.1377E+01  0.2899E-01  0.2896E-01  0.2268E-04  0.0000E+00  0.4506E-06  0.4506E-06  0.6250E-05  0.4482E-05  0.0000E+00  0.1211E-04  0.0000E+00  0.9079E+00  0.9072E+00  0.0000E+00  0.5864E-02  0.0000E+00  0.0000E+00  0.4013E-05  0.0000E+00  0.1228E-17  0.0000E+00  0.0000E+00  0.0000E+00  0.8943E+03  0.8878E+03  0.0000E+00  0.0000E+00  0.0000E+00  0.0000E+00  0.0000E+00  0.0000E+00  0.0000E+00  0.0000E+00  0.0000E+00  0.0000E+00  0.0000E+00  0.0000E+00  0.0000E+00  0.0000E+00  0.0000E+00  0.0000E+00  0.0000E+00  0.9131E+00  0.0000E+00  0.0000E+00  0.0000E+00
REACH    1        0     7  0.5330E+01  0.5151E-01  0.5137E-01  0.1449E-03  0.0000E+00  0.5687E+00  0.1425E+02  0.1012E+03  0.3905E-04  0.3184E-04  0.3508E-04  0.1395E-04  0.7847E+00  0.7826E+00  0.9910E-02  0.2964E-01  0.0000E+00  0.0000E+00  0.7245E-05  0.0000E+00  0.1207E-17  0.0000E+00  0.5595E-01  0.5391E-01  0.1657E+04  0.1661E+04  0.0000E+00  0.0000E+00  0.0000E+00  0.0000E+00  0.0000E+00  0.0000E+00  0.0000E+00  0.0000E+00  0.0000E+00  0.0000E+00  0.0000E+00  0.0000E+00  0.0000E+00  0.0000E+00  0.0000E+00  0.0000E+00  0.0000E+00  0.8123E+00  0.1395E-04  0.0000E+00  0.0000E+00
REACH    2        0     7  0.1473E+01  0.1971E-01  0.1969E-01  0.1579E-04  0.0000E+00  0.3932E-06  0.3932E-06  0.7507E-05  0.4466E-05  0.0000E+00  0.1340E-04  0.0000E+00  0.2129E+00  0.2127E+00  0.0000E+00  0.4266E-02  0.0000E+00  0.0000E+00  0.4471E-05  0.0000E+00  0.3762E-18  0.0000E+00  0.0000E+00  0.0000E+00  0.6500E+03  0.6365E+03  0.0000E+00  0.0000E+00  0.0000E+00  0.0000E+00  0.0000E+00  0.0000E+00  0.0000E+00  0.0000E+00  0.0000E+00  0.0000E+00  0.0000E+00  0.0000E+00  0.0000E+00  0.0000E+00  0.0000E+00  0.0000E+00  0.0000E+00  0.2170E+00  0.0000E+00  0.0000E+00  0.0000E+00
REACH    3        0     7  0.1377E+01  0.1183E-01  0.1181E-01  0.2116E-04  0.0000E+00  0.5687E+00  0.5687E+00  0.1710E+02  0.3595E-04  0.3181E-04  0.2546E-04  0.1337E-04  0.3225E+00  0.3218E+00  0.0000E+00  0.5643E-02  0.0000E+00  0.0000E+00  0.4305E-05  0.0000E+00  0.5911E-11  0.0000E+00  0.5727E-01  0.5595E-01  0.3859E+03  0.3827E+03  0.0000E+00  0.0000E+00  0.0000E+00  0.0000E+00  0.0000E+00  0.0000E+00  0.0000E+00  0.0000E+00  0.0000E+00  0.0000E+00  0.0000E+00  0.0000E+00  0.0000E+00  0.0000E+00  0.0000E+00  0.0000E+00  0.0000E+00  0.3275E+00  0.1337E-04  0.0000E+00  0.0000E+00
REACH    1        0     8  0.5330E+01  0.3667E-01  0.3655E-01  0.1183E-03  0.0000E+00  0.1847E+03  0.7057E+01  0.7204E+02  0.2478E-01  0.2455E-01  0.8015E-02  0.7906E-02  0.1258E+01  0.1254E+01  0.1029E-01  0.3078E-01  0.0000E+00  0.6401E-05  0.1354E-03  0.3918E-03  0.3658E-05  0.0000E+00  0.2264E+04  0.2153E+04  0.1116E+04  0.1014E+04  0.0000E+00  0.0000E+00  0.0000E+00  0.0000E+00  0.0000E+00  0.0000E+00  0.0000E+00  0.0000E+00  0.0000E+00  0.0000E+00  0.0000E+00  0.0000E+00  0.0000E+00  0.0000E+00  0.0000E+00  0.0000E+00  0.0000E+00  0.1310E+01  0.8298E-02  0.0000E+00  0.0000E+00
[...]
REACH    1        0     3  0.5330E+01  0.4023E+00  0.4022E+00  0.9171E-04  0.0000E+00  0.8824E+05  0.2630E+03  0.2345E+03  0.4870E+02  0.4861E+02  0.1067E+02  0.1064E+02  0.8913E+01  0.8911E+01  0.1430E-01  0.4290E-01  0.0000E+00  0.0000E+00  0.1051E+00  0.1345E+00  0.3951E+00  0.3488E+00  0.2714E+07  0.2678E+07  0.5446E+04  0.3056E+04  0.0000E+00  0.0000E+00  0.0000E+00  0.0000E+00  0.0000E+00  0.0000E+00  0.0000E+00  0.0000E+00  0.0000E+00  0.0000E+00  0.0000E+00  0.0000E+00  0.0000E+00  0.0000E+00  0.0000E+00  0.0000E+00  0.0000E+00  0.5756E+02  0.1077E+02  0.0000E+00  0.0000E+00
REACH    2        0     3  0.1473E+01  0.1012E+00  0.1011E+00  0.1001E-04  0.0000E+00  0.2696E+05  0.2696E+05  0.5449E+05  0.1759E+01  0.1758E+01  0.3923E+00  0.3919E+00  0.2039E+01  0.2038E+01  0.0000E+00  0.6006E-02  0.0000E+00  0.0000E+00  0.7377E-02  0.8193E-02  0.1301E-01  0.1222E-01  0.8890E+06  0.8856E+06  0.2454E+04  0.9609E+03  0.0000E+00  0.0000E+00  0.0000E+00  0.0000E+00  0.0000E+00  0.0000E+00  0.0000E+00  0.0000E+00  0.0000E+00  0.0000E+00  0.0000E+00  0.0000E+00  0.0000E+00  0.0000E+00  0.0000E+00  0.0000E+00  0.0000E+00  0.3802E+01  0.4001E+00  0.0000E+00  0.0000E+00
REACH    3        0     3  0.1377E+01  0.1649E+00  0.1649E+00  0.1457E-04  0.0000E+00  0.3710E+05  0.3710E+05  0.6031E+05  0.2127E+01  0.2125E+01  0.4791E+00  0.4786E+00  0.3147E+01  0.3147E+01  0.0000E+00  0.8298E-02  0.0000E+00  0.0000E+00  0.7868E-02  0.9009E-02  0.1129E-01  0.1069E-01  0.9939E+06  0.9889E+06  0.3929E+04  0.1148E+04  0.0000E+00  0.0000E+00  0.0000E+00  0.0000E+00  0.0000E+00  0.0000E+00  0.0000E+00  0.0000E+00  0.0000E+00  0.0000E+00  0.0000E+00  0.0000E+00  0.0000E+00  0.0000E+00  0.0000E+00  0.0000E+00  0.0000E+00  0.5281E+01  0.4876E+00  0.0000E+00  0.0000E+00
REACH    1        0     4  0.5330E+01  0.3290E+00  0.3289E+00  0.1090E-03  0.0000E+00  0.3978E+05  0.1961E+03  0.2223E+03  0.1198E+02  0.1195E+02  0.2613E+01  0.2605E+01  0.6706E+01  0.6704E+01  0.1274E-01  0.3822E-01  0.0000E+00  0.0000E+00  0.3255E-01  0.4127E-01  0.7801E-01  0.6921E-01  0.1427E+07  0.1409E+07  0.7334E+04  0.6489E+04  0.0000E+00  0.0000E+00  0.0000E+00  0.0000E+00  0.0000E+00  0.0000E+00  0.0000E+00  0.0000E+00  0.0000E+00  0.0000E+00  0.0000E+00  0.0000E+00  0.0000E+00  0.0000E+00  0.0000E+00  0.0000E+00  0.0000E+00  0.1869E+02  0.2647E+01  0.0000E+00  0.0000E+00
REACH    2        0     4  0.1473E+01  0.8628E-01  0.8626E-01  0.1213E-04  0.0000E+00  0.1203E+05  0.1203E+05  0.2055E+05  0.4265E+00  0.4262E+00  0.1156E+00  0.1155E+00  0.1585E+01  0.1585E+01  0.0000E+00  0.5381E-02  0.0000E+00  0.0000E+00  0.1949E-02  0.2272E-02  0.2264E-02  0.2140E-02  0.4511E+06  0.4494E+06  0.2301E+04  0.1939E+04  0.0000E+00  0.0000E+00  0.0000E+00  0.0000E+00  0.0000E+00  0.0000E+00  0.0000E+00  0.0000E+00  0.0000E+00  0.0000E+00  0.0000E+00  0.0000E+00  0.0000E+00  0.0000E+00  0.0000E+00  0.0000E+00  0.0000E+00  0.2016E+01  0.1178E+00  0.0000E+00  0.0000E+00
REACH    3        0     4  0.1377E+01  0.1234E+00  0.1234E+00  0.1714E-04  0.0000E+00  0.1764E+05  0.1764E+05  0.2241E+05  0.5497E+00  0.5492E+00  0.1212E+00  0.1211E+00  0.2552E+01  0.2551E+01  0.0000E+00  0.7362E-02  0.0000E+00  0.0000E+00  0.1991E-02  0.2465E-02  0.2026E-02  0.1917E-02  0.5570E+06  0.5542E+06  0.3258E+04  0.2323E+04  0.0000E+00  0.0000E+00  0.0000E+00  0.0000E+00  0.0000E+00  0.0000E+00  0.0000E+00  0.0000E+00  0.0000E+00  0.0000E+00  0.0000E+00  0.0000E+00  0.0000E+00  0.0000E+00  0.0000E+00  0.0000E+00  0.0000E+00  0.3108E+01  0.1235E+00  0.0000E+00  0.0000E+00
REACH    1        0     5  0.5330E+01  0.2281E+00  0.2279E+00  0.2407E-03  0.0000E+00  0.7407E-01  0.1134E+03  0.1854E+03  0.7924E+00  0.7896E+00  0.1696E+00  0.1688E+00  0.3225E+01  0.3221E+01  0.1187E-01  0.3556E-01  0.0000E+00  0.0000E+00  0.2753E-02  0.4115E-02  0.3240E-03  0.2497E-03  0.5443E-03  0.5341E-03  0.6968E+04  0.6995E+04  0.0000E+00  0.0000E+00  0.0000E+00  0.0000E+00  0.0000E+00  0.0000E+00  0.0000E+00  0.0000E+00  0.0000E+00  0.0000E+00  0.0000E+00  0.0000E+00  0.0000E+00  0.0000E+00  0.0000E+00  0.0000E+00  0.0000E+00  0.4047E+01  0.1729E+00  0.0000E+00  0.0000E+00
REACH    2        0     5  0.1473E+01  0.6418E-01  0.6415E-01  0.2622E-04  0.0000E+00  0.1553E-02  0.1553E-02  0.8167E-02  0.3065E-01  0.3060E-01  0.6492E-02  0.6463E-02  0.7255E+00  0.7252E+00  0.0000E+00  0.5042E-02  0.0000E+00  0.0000E+00  0.1900E-03  0.2745E-03  0.1002E-04  0.8799E-05  0.0000E+00  0.0000E+00  0.2011E+04  0.1970E+04  0.0000E+00  0.0000E+00  0.0000E+00  0.0000E+00  0.0000E+00  0.0000E+00  0.0000E+00  0.0000E+00  0.0000E+00  0.0000E+00  0.0000E+00  0.0000E+00  0.0000E+00  0.0000E+00  0.0000E+00  0.0000E+00  0.0000E+00  0.7608E+00  0.6737E-02  0.0000E+00  0.0000E+00
REACH    3        0     5  0.1377E+01  0.7415E-01  0.7411E-01  0.3664E-04  0.0000E+00  0.6604E-01  0.6604E-01  0.2738E+00  0.3009E-01  0.3004E-01  0.6330E-02  0.6300E-02  0.1498E+01  0.1497E+01  0.0000E+00  0.6826E-02  0.0000E+00  0.0000E+00  0.1778E-03  0.2922E-03  0.1046E-04  0.9152E-05  0.5479E-03  0.5443E-03  0.2291E+04  0.2275E+04  0.0000E+00  0.0000E+00  0.0000E+00  0.0000E+00  0.0000E+00  0.0000E+00  0.0000E+00  0.0000E+00  0.0000E+00  0.0000E+00  0.0000E+00  0.0000E+00  0.0000E+00  0.0000E+00  0.0000E+00  0.0000E+00  0.0000E+00  0.1534E+01  0.6592E-02  0.0000E+00  0.0000E+00
REACH    1        0     6  0.5330E+01  0.1592E+00  0.1590E+00  0.2353E-03  0.0000E+00  0.1087E-05  0.6421E+02  0.1540E+03  0.7501E-05  0.0000E+00  0.2110E-04  0.0000E+00  0.1092E+01  0.1090E+01  0.1079E-01  0.3233E-01  0.0000E+00  0.0000E+00  0.7011E-05  0.0000E+00  0.9808E-19  0.0000E+00  0.0000E+00  0.0000E+00  0.4780E+04  0.4801E+04  0.0000E+00  0.0000E+00  0.0000E+00  0.0000E+00  0.0000E+00  0.0000E+00  0.0000E+00  0.0000E+00  0.0000E+00  0.0000E+00  0.0000E+00  0.0000E+00  0.0000E+00  0.0000E+00  0.0000E+00  0.0000E+00  0.0000E+00  0.1122E+01  0.0000E+00  0.0000E+00  0.0000E+00
REACH    2        0     6  0.1473E+01  0.5005E-01  0.5003E-01  0.2584E-04  0.0000E+00  0.3805E-06  0.3805E-06  0.2951E-05  0.4405E-05  0.0000E+00  0.1298E-04  0.0000E+00  0.2562E+00  0.2561E+00  0.0000E+00  0.4636E-02  0.0000E+00  0.0000E+00  0.4327E-05  0.0000E+00  0.4417E-19  0.0000E+00  0.0000E+00  0.0000E+00  0.1542E+04  0.1511E+04  0.0000E+00  0.0000E+00  0.0000E+00  0.0000E+00  0.0000E+00  0.0000E+00  0.0000E+00  0.0000E+00  0.0000E+00  0.0000E+00  0.0000E+00  0.0000E+00  0.0000E+00  0.0000E+00  0.0000E+00  0.0000E+00  0.0000E+00  0.2607E+00  0.0000E+00  0.0000E+00  0.0000E+00
REACH    3        0     6  0.1377E+01  0.3865E-01  0.3861E-01  0.3481E-04  0.0000E+00  0.4506E-06  0.4506E-06  0.4710E-05  0.4084E-05  0.0000E+00  0.1203E-04  0.0000E+00  0.4860E+00  0.4856E+00  0.0000E+00  0.6157E-02  0.0000E+00  0.0000E+00  0.4010E-05  0.0000E+00  0.1198E-18  0.0000E+00  0.0000E+00  0.0000E+00  0.1174E+04  0.1166E+04  0.0000E+00  0.0000E+00  0.0000E+00  0.0000E+00  0.0000E+00  0.0000E+00  0.0000E+00  0.0000E+00  0.0000E+00  0.0000E+00  0.0000E+00  0.0000E+00  0.0000E+00  0.0000E+00  0.0000E+00  0.0000E+00  0.0000E+00  0.4917E+00  0.0000E+00  0.0000E+00  0.0000E+00
REACH    1        0     7  0.5330E+01  0.1090E+00  0.1087E+00  0.2345E-03  0.0000E+00  0.1124E-05  0.4127E+02  0.1402E+03  0.7237E-05  0.0000E+00  0.2171E-04  0.0000E+00  0.3872E+00  0.3864E+00  0.1079E-01  0.3231E-01  0.0000E+00  0.0000E+00  0.7245E-05  0.0000E+00  0.1669E-18  0.0000E+00  0.0000E+00  0.0000E+00  0.3405E+04  0.3420E+04  0.0000E+00  0.0000E+00  0.0000E+00  0.0000E+00  0.0000E+00  0.0000E+00  0.0000E+00  0.0000E+00  0.0000E+00  0.0000E+00  0.0000E+00  0.0000E+00  0.0000E+00  0.0000E+00  0.0000E+00  0.0000E+00  0.0000E+00  0.4187E+00  0.0000E+00  0.0000E+00  0.0000E+00
REACH    2        0     7  0.1473E+01  0.3795E-01  0.3792E-01  0.2596E-04  0.0000E+00  0.3932E-06  0.3932E-06  0.3898E-05  0.4466E-05  0.0000E+00  0.1340E-04  0.0000E+00  0.9904E-01  0.9897E-01  0.0000E+00  0.4665E-02  0.0000E+00  0.0000E+00  0.4471E-05  0.0000E+00  0.7904E-19  0.0000E+00  0.0000E+00  0.0000E+00  0.1218E+04  0.1193E+04  0.0000E+00  0.0000E+00  0.0000E+00  0.0000E+00  0.0000E+00  0.0000E+00  0.0000E+00  0.0000E+00  0.0000E+00  0.0000E+00  0.0000E+00  0.0000E+00  0.0000E+00  0.0000E+00  0.0000E+00  0.0000E+00  0.0000E+00  0.1036E+00  0.0000E+00  0.0000E+00  0.0000E+00
REACH    3        0     7  0.1377E+01  0.1733E-01  0.1729E-01  0.3416E-04  0.0000E+00  0.4657E-06  0.4657E-06  0.1087E-04  0.4139E-05  0.0000E+00  0.1242E-04  0.0000E+00  0.1561E+00  0.1558E+00  0.0000E+00  0.6127E-02  0.0000E+00  0.0000E+00  0.4143E-05  0.0000E+00  0.1821E-17  0.0000E+00  0.0000E+00  0.0000E+00  0.5492E+03  0.5446E+03  0.0000E+00  0.0000E+00  0.0000E+00  0.0000E+00  0.0000E+00  0.0000E+00  0.0000E+00  0.0000E+00  0.0000E+00  0.0000E+00  0.0000E+00  0.0000E+00  0.0000E+00  0.0000E+00  0.0000E+00  0.0000E+00  0.0000E+00  0.1619E+00  0.0000E+00  0.0000E+00  0.0000E+00
REACH    1        0     8  0.5330E+01  0.7505E-01  0.7487E-01  0.1790E-03  0.0000E+00  0.5634E+03  0.1965E+02  0.9753E+02  0.7893E-02  0.7835E-02  0.2054E-02  0.2027E-02  0.7687E+00  0.7668E+00  0.1127E-01  0.3373E-01  0.0000E+00  0.0000E+00  0.1839E-03  0.4680E-03  0.3460E-04  0.1104E-04  0.1820E+05  0.1756E+05  0.2198E+04  0.1883E+04  0.0000E+00  0.0000E+00  0.0000E+00  0.0000E+00  0.0000E+00  0.0000E+00  0.0000E+00  0.0000E+00  0.0000E+00  0.0000E+00  0.0000E+00  0.0000E+00  0.0000E+00  0.0000E+00  0.0000E+00  0.0000E+00  0.0000E+00  0.8084E+00  0.2495E-02  0.0000E+00  0.0000E+00
REACH    2        0     8  0.1473E+01  0.2833E-01  0.2831E-01  0.1928E-04  0.0000E+00  0.1662E+02  0.1662E+02  0.2079E+03  0.7910E-05  0.3583E-05  0.2873E-04  0.1573E-04  0.5315E-01  0.5312E-01  0.0000E+00  0.4886E-02  0.0000E+00  0.0000E+00  0.6664E-05  0.0000E+00  0.6669E-07  0.0000E+00  0.5914E+02  0.5870E+02  0.8906E+03  0.8462E+03  0.0000E+00  0.0000E+00  0.0000E+00  0.0000E+00  0.0000E+00  0.0000E+00  0.0000E+00  0.0000E+00  0.0000E+00  0.0000E+00  0.0000E+00  0.0000E+00  0.0000E+00  0.0000E+00  0.0000E+00  0.0000E+00  0.0000E+00  0.5800E-01  0.1573E-04  0.0000E+00  0.0000E+00
REACH    3        0     8  0.1377E+01  0.6677E-02  0.6651E-02  0.2517E-04  0.0000E+00  0.5468E+03  0.5468E+03  0.1462E+05  0.7933E-02  0.7882E-02  0.2035E-02  0.2017E-02  0.6284E+00  0.6261E+00  0.0000E+00  0.6385E-02  0.0000E+00  0.0000E+00  0.6223E-04  0.1766E-03  0.1049E-03  0.3460E-04  0.1855E+05  0.1814E+05  0.1903E+03  0.1324E+03  0.0000E+00  0.0000E+00  0.0000E+00  0.0000E+00  0.0000E+00  0.0000E+00  0.0000E+00  0.0000E+00  0.0000E+00  0.0000E+00  0.0000E+00  0.0000E+00  0.0000E+00  0.0000E+00  0.0000E+00  0.0000E+00  0.0000E+00  0.6404E+00  0.2193E-02  0.0000E+00  0.0000E+00
REACH    1        0     9  0.5330E+01  0.8068E-01  0.8054E-01  0.1425E-03  0.0000E+00  0.1384E+05  0.2254E+02  0.1004E+03  0.1214E+01  0.1209E+01  0.2754E+00  0.2738E+00  0.8425E+01  0.8418E+01  0.1162E-01  0.3479E-01  0.0000E+00  0.0000E+00  0.4583E-02  0.8548E-02  0.6926E-01  0.5180E-01  0.5773E+06  0.5641E+06  0.1644E+04  0.6633E+03  0.0000E+00  0.0000E+00  0.0000E+00  0.0000E+00  0.0000E+00  0.0000E+00  0.0000E+00  0.0000E+00  0.0000E+00  0.0000E+00  0.0000E+00  0.0000E+00  0.0000E+00  0.0000E+00  0.0000E+00  0.0000E+00  0.0000E+00  0.9662E+01  0.2824E+00  0.0000E+00  0.0000E+00
REACH    2        0     9  0.1473E+01  0.2337E-01  0.2336E-01  0.1536E-04  0.0000E+00  0.2710E+04  0.2710E+04  0.1019E+05  0.4472E-01  0.4466E-01  0.1132E-01  0.1129E-01  0.5134E+00  0.5132E+00  0.0000E+00  0.4862E-02  0.0000E+00  0.0000E+00  0.2712E-03  0.4143E-03  0.2919E-02  0.2628E-02  0.1235E+06  0.1229E+06  0.6517E+03  0.5798E+03  0.0000E+00  0.0000E+00  0.0000E+00  0.0000E+00  0.0000E+00  0.0000E+00  0.0000E+00  0.0000E+00  0.0000E+00  0.0000E+00  0.0000E+00  0.0000E+00  0.0000E+00  0.0000E+00  0.0000E+00  0.0000E+00  0.0000E+00  0.5627E+00  0.1170E-01  0.0000E+00  0.0000E+00
REACH    3        0     9  0.1377E+01  0.2636E-01  0.2634E-01  0.2099E-04  0.0000E+00  0.1005E+05  0.1005E+05  0.6520E+05  0.2849E+00  0.2843E+00  0.6349E-01  0.6333E-01  0.2957E+01  0.2954E+01  0.0000E+00  0.6757E-02  0.0000E+00  0.0000E+00  0.1098E-02  0.1795E-02  0.6345E-02  0.5434E-02  0.4123E+06  0.4091E+06  0.5276E+03  0.1907E+03  0.0000E+00  0.0000E+00  0.0000E+00  0.0000E+00  0.0000E+00  0.0000E+00  0.0000E+00  0.0000E+00  0.0000E+00  0.0000E+00  0.0000E+00  0.0000E+00  0.0000E+00  0.0000E+00  0.0000E+00  0.0000E+00  0.0000E+00  0.3246E+01  0.6512E-01  0.0000E+00  0.0000E+00
REACH    1        0    10  0.5330E+01  0.1146E+00  0.1145E+00  0.9180E-04  0.0000E+00  0.3183E+05  0.4727E+02  0.1321E+03  0.7170E+01  0.7148E+01  0.1592E+01  0.1585E+01  0.8543E+01  0.8535E+01  0.1254E-01  0.3758E-01  0.0000E+00  0.0000E+00  0.1861E-01  0.2826E-01  0.9218E-01  0.6893E-01  0.1426E+07  0.1402E+07  0.1550E+04  0.7469E+03  0.0000E+00  0.0000E+00  0.0000E+00  0.0000E+00  0.0000E+00  0.0000E+00  0.0000E+00  0.0000E+00  0.0000E+00  0.0000E+00  0.0000E+00  0.0000E+00  0.0000E+00  0.0000E+00  0.0000E+00  0.0000E+00  0.0000E+00  0.1572E+02  0.1613E+01  0.0000E+00  0.0000E+00
REACH    2        0    10  0.1473E+01  0.2631E-01  0.2630E-01  0.9861E-05  0.0000E+00  0.7675E+04  0.7675E+04  0.2844E+05  0.2403E+00  0.2399E+00  0.5063E-01  0.5054E-01  0.2106E+01  0.2105E+01  0.0000E+00  0.5107E-02  0.0000E+00  0.0000E+00  0.1194E-02  0.1630E-02  0.3547E-02  0.3066E-02  0.3938E+06  0.3919E+06  0.6164E+03  0.4299E+03  0.0000E+00  0.0000E+00  0.0000E+00  0.0000E+00  0.0000E+00  0.0000E+00  0.0000E+00  0.0000E+00  0.0000E+00  0.0000E+00  0.0000E+00  0.0000E+00  0.0000E+00  0.0000E+00  0.0000E+00  0.0000E+00  0.0000E+00  0.2350E+01  0.5217E-01  0.0000E+00  0.0000E+00
REACH    3        0    10  0.1377E+01  0.5917E-01  0.5916E-01  0.1404E-04  0.0000E+00  0.1621E+05  0.1621E+05  0.6796E+05  0.8727E+00  0.8716E+00  0.1826E+00  0.1822E+00  0.5746E+01  0.5745E+01  0.0000E+00  0.7430E-02  0.0000E+00  0.0000E+00  0.2922E-02  0.3842E-02  0.9231E-02  0.8054E-02  0.6122E+06  0.6080E+06  0.1219E+04  0.3927E+03  0.0000E+00  0.0000E+00  0.0000E+00  0.0000E+00  0.0000E+00  0.0000E+00  0.0000E+00  0.0000E+00  0.0000E+00  0.0000E+00  0.0000E+00  0.0000E+00  0.0000E+00  0.0000E+00  0.0000E+00  0.0000E+00  0.0000E+00  0.6624E+01  0.1861E+00  0.0000E+00  0.0000E+00
REACH    1        0    11  0.5330E+01  0.1552E+00  0.1552E+00  0.8353E-04  0.0000E+00  0.3201E+05  0.4757E+02  0.1549E+03  0.9418E+01  0.9393E+01  0.2012E+01  0.2004E+01  0.8384E+01  0.8379E+01  0.8316E-02  0.2493E-01  0.0000E+00  0.0000E+00  0.2342E-01  0.3244E-01  0.1703E+00  0.1293E+00  0.1380E+07  0.1355E+07  0.1134E+04  0.7114E+03  0.0000E+00  0.0000E+00  0.0000E+00  0.0000E+00  0.0000E+00  0.0000E+00  0.0000E+00  0.0000E+00  0.0000E+00  0.0000E+00  0.0000E+00  0.0000E+00  0.0000E+00  0.0000E+00  0.0000E+00  0.0000E+00  0.0000E+00  0.1780E+02  0.2037E+01  0.0000E+00  0.0000E+00
REACH    2        0    11  0.1473E+01  0.3193E-01  0.3192E-01  0.8746E-05  0.0000E+00  0.7149E+04  0.7149E+04  0.5003E+05  0.2352E+00  0.2350E+00  0.4955E-01  0.4948E-01  0.2457E+01  0.2456E+01  0.0000E+00  0.3350E-02  0.0000E+00  0.0000E+00  0.1100E-02  0.1378E-02  0.3378E-02  0.2916E-02  0.3259E+06  0.3242E+06  0.4733E+03  0.2632E+03  0.0000E+00  0.0000E+00  0.0000E+00  0.0000E+00  0.0000E+00  0.0000E+00  0.0000E+00  0.0000E+00  0.0000E+00  0.0000E+00  0.0000E+00  0.0000E+00  0.0000E+00  0.0000E+00  0.0000E+00  0.0000E+00  0.0000E+00  0.2694E+01  0.5086E-01  0.0000E+00  0.0000E+00
REACH    3        0    11  0.1377E+01  0.8958E-01  0.8956E-01  0.1283E-04  0.0000E+00  0.1848E+05  0.1848E+05  0.7980E+05  0.7593E+00  0.7586E+00  0.1595E+00  0.1593E+00  0.4570E+01  0.4569E+01  0.0000E+00  0.4966E-02  0.0000E+00  0.0000E+00  0.2623E-02  0.3248E-02  0.6904E-02  0.6335E-02  0.7100E+06  0.7056E+06  0.1233E+04  0.4360E+03  0.0000E+00  0.0000E+00  0.0000E+00  0.0000E+00  0.0000E+00  0.0000E+00  0.0000E+00  0.0000E+00  0.0000E+00  0.0000E+00  0.0000E+00  0.0000E+00  0.0000E+00  0.0000E+00  0.0000E+00  0.0000E+00  0.0000E+00  0.5333E+01  0.1625E+00  0.0000E+00  0.0000E+00
REACH    1        0  1998  0.5330E+01  0.2472E+00  0.2471E+00  0.1395E-03  0.0000E+00  0.7579E+06  0.1617E+04  0.1758E+03  0.1552E+05  0.1549E+05  0.3421E+04  0.3412E+04  0.7665E+02  0.7649E+02  0.4083E+01  0.1225E+02  0.0000E+00  0.6552E-02  0.2951E+01  0.7108E+01  0.2827E+03  0.2551E+03  0.3462E+08  0.3422E+08  0.4438E+05  0.3391E+05  0.0000E+00  0.0000E+00  0.0000E+00  0.0000E+00  0.0000E+00  0.0000E+00  0.0000E+00  0.0000E+00  0.0000E+00  0.0000E+00  0.0000E+00  0.0000E+00  0.0000E+00  0.0000E+00  0.0000E+00  0.0000E+00  0.0000E+00  0.1558E+05  0.3419E+04  0.0000E+00  0.0000E+00
REACH    2        0  1998  0.1473E+01  0.6490E-01  0.6489E-01  0.1517E-04  0.0000E+00  0.2242E+06  0.2242E+06  0.2901E+05  0.4360E+04  0.4358E+04  0.9618E+03  0.9610E+03  0.1755E+02  0.1753E+02  0.0000E+00  0.1902E+01  0.0000E+00  0.0000E+00  0.3907E+00  0.7998E+00  0.7609E+02  0.7259E+02  0.1048E+08  0.1044E+08  0.1641E+05  0.1164E+05  0.0000E+00  0.0000E+00  0.0000E+00  0.0000E+00  0.0000E+00  0.0000E+00  0.0000E+00  0.0000E+00  0.0000E+00  0.0000E+00  0.0000E+00  0.0000E+00  0.0000E+00  0.0000E+00  0.0000E+00  0.0000E+00  0.0000E+00  0.4377E+04  0.9618E+03  0.0000E+00  0.0000E+00
REACH    3        0  1998  0.1377E+01  0.9472E-01  0.9470E-01  0.2090E-04  0.0000E+00  0.3174E+06  0.3174E+06  0.4319E+05  0.4042E+04  0.4039E+04  0.8907E+03  0.8898E+03  0.3099E+02  0.3097E+02  0.0000E+00  0.2180E+01  0.0000E+00  0.0000E+00  0.5149E+00  0.9971E+00  0.4623E+02  0.4413E+02  0.1271E+08  0.1265E+08  0.2244E+05  0.1165E+05  0.0000E+00  0.0000E+00  0.0000E+00  0.0000E+00  0.0000E+00  0.0000E+00  0.0000E+00  0.0000E+00  0.0000E+00  0.0000E+00  0.0000E+00  0.0000E+00  0.0000E+00  0.0000E+00  0.0000E+00  0.0000E+00  0.0000E+00  0.4073E+04  0.8908E+03  0.0000E+00  0.0000E+00
REACH    1        0   9.7  0.5330E+01  0.1880E+00  0.1879E+00  0.1091E-03  0.0000E+00  0.4988E+06  0.1188E+04  0.1597E+03  0.2461E+05  0.2455E+05  0.5411E+04  0.5391E+04  0.1755E+03  0.1746E+03  0.8589E+01  0.2576E+02  0.0000E+00  0.1810E-01  0.3041E+01  0.8036E+01  0.4708E+03  0.3381E+03  0.2161E+08  0.2133E+08  0.3772E+05  0.2892E+05  0.0000E+00  0.0000E+00  0.0000E+00  0.0000E+00  0.0000E+00  0.0000E+00  0.0000E+00  0.0000E+00  0.0000E+00  0.0000E+00  0.0000E+00  0.0000E+00  0.0000E+00  0.0000E+00  0.0000E+00  0.0000E+00  0.0000E+00  0.2475E+05  0.5399E+04  0.0000E+00  0.0000E+00
REACH    2        0   9.7  0.1473E+01  0.4881E-01  0.4880E-01  0.1129E-04  0.0000E+00  0.1381E+06  0.1381E+06  0.2704E+05  0.7026E+04  0.7021E+04  0.1546E+04  0.1544E+04  0.4757E+02  0.4745E+02  0.0000E+00  0.3993E+01  0.0000E+00  0.0000E+00  0.3343E+00  0.8539E+00  0.1425E+03  0.1251E+03  0.6113E+07  0.6090E+07  0.1440E+05  0.1015E+05  0.0000E+00  0.0000E+00  0.0000E+00  0.0000E+00  0.0000E+00  0.0000E+00  0.0000E+00  0.0000E+00  0.0000E+00  0.0000E+00  0.0000E+00  0.0000E+00  0.0000E+00  0.0000E+00  0.0000E+00  0.0000E+00  0.0000E+00  0.7073E+04  0.1545E+04  0.0000E+00  0.0000E+00
REACH    3        0   9.7  0.1377E+01  0.7837E-01  0.7835E-01  0.1609E-04  0.0000E+00  0.2143E+06  0.2143E+06  0.4005E+05  0.6566E+04  0.6560E+04  0.1445E+04  0.1443E+04  0.6477E+02  0.6466E+02  0.0000E+00  0.4596E+01  0.0000E+00  0.0000E+00  0.4424E+00  0.1057E+01  0.1061E+03  0.9003E+02  0.7771E+07  0.7732E+07  0.2201E+05  0.1102E+05  0.0000E+00  0.0000E+00  0.0000E+00  0.0000E+00  0.0000E+00  0.0000E+00  0.0000E+00  0.0000E+00  0.0000E+00  0.0000E+00  0.0000E+00  0.0000E+00  0.0000E+00  0.0000E+00  0.0000E+00  0.0000E+00  0.0000E+00  0.6630E+04  0.1444E+04  0.0000E+00  0.0000E+00
