1
    SWAT Dec 23 2016    VER 2016/Rev 664                                                                 0/ 0/   0      0: 0: 0

    General Input/Output section (file.cio):                                        
    5/31/2025 12:00:00 AM ARCGIS-SWAT interface AV                                  
                                                                                    


       SUBTEST      GIS  MON   AREAkm2  PRECIPmm SNOMELTmm     PETmm      ETmm      SWmm    PERCmm    SURQmm    GW_Qmm    WYLDmm  SYLDt/ha ORGNkg/ha ORGPkg/haNSURQkg/ha SOLPkg/ha SEDPkg/ha LAT Q(mm)LATNO3kg/hGWNO3kg/haCHOLAmic/LCBODU mg/L DOXQ mg/L TNO3kg/ha   QTILEmm TVAPkg/ha    SnoCov  GLMELTmm   GLACCmm
BIGSUB   1        0    3.24803E+01   146.346    17.967     7.573     3.713   121.520    15.994     6.783     0.000    60.063    15.480    38.588     4.727     0.003     0.002     3.681    53.212     0.941     0.000 .00000E+00 0.000E+00 0.000E+00 0.000E+00 0.000E+00 0.000E+00
BIGSUB   0        0    0
BIGSUB   2        0    3.14730E+01   158.809    35.589     6.309     3.250   110.455     0.203     1.879     0.000    40.792     4.097    14.431     1.768     0.001     0.001     1.375    38.912     0.642     0.000 .00000E+00 0.000E+00 0.000E+00 0.000E+00 0.000E+00 0.000E+00
BIGSUB   0        0    0
BIGSUB   3        0    3.13769E+01   156.809    39.442     6.695     3.922   117.698     5.120     7.495     0.067    65.087    19.278    55.335     6.779     0.003     0.002     5.277    57.524     0.933     0.000 .00000E+00 0.000E+00 0.000E+00 0.000E+00 0.000E+00 0.000E+00
BIGSUB   0        0    0
BIGSUB   1        0    4.24803E+01    61.569    10.054    28.125    22.894   120.614    18.444     1.104     0.000    37.553     4.751     7.081     0.867     0.000     0.000     0.678    33.344     0.527     0.000 .00000E+00 0.000E+00 0.000E+00 0.000E+00 0.000E+00 0.000E+00
BIGSUB   0        0    0
BIGSUB   2        0    4.14730E+01    78.544    83.338    15.596    12.279   123.730    30.840     8.757     0.000    99.886    40.891    70.437     8.628     0.000     0.002     6.735    89.749     1.439     0.000 .00000E+00 0.000E+00 0.000E+00 0.000E+00 0.000E+00 0.000E+00
BIGSUB   0        0    0
BIGSUB   3        0    4.13769E+01    75.602    46.339    27.186    24.094   124.066    44.790    17.486     8.760   142.867    65.432    74.378     9.111     0.001     0.003     7.177   116.488     1.556     0.008 .00000E+00 0.000E+00 0.000E+00 0.000E+00 0.000E+00 0.000E+00
BIGSUB   0        0    0
BIGSUB   1        0    5.24803E+01    12.343     1.090    53.306    29.071   104.563     0.000     0.000     0.000     6.802     0.000     0.000     0.000     0.000     0.000     0.000     0.784     0.002     0.000 .00000E+00 0.000E+00 0.000E+00 0.000E+00 0.000E+00 0.000E+00
BIGSUB   0        0    0
BIGSUB   2        0    5.14730E+01    28.982    12.637    49.374    42.199   112.316     2.546     0.001     0.000    15.977     0.001     0.002     0.000     0.000     0.000     0.000    10.819     0.090     0.000 .00000E+00 0.000E+00 0.000E+00 0.000E+00 0.000E+00 0.000E+00
BIGSUB   0        0    0
BIGSUB   3        0    5.13769E+01    25.888     7.914    50.453    45.449   116.614    19.523     1.014    22.000    70.760     2.289     1.335     0.164     0.000     0.000     0.132    47.289     0.354     0.023 .00000E+00 0.000E+00 0.000E+00 0.000E+00 0.000E+00 0.000E+00
BIGSUB   0        0    0
BIGSUB   1        0    6.24803E+01     9.282     1.854    52.304    19.782    94.919     0.000     0.000     0.000     6.318     0.000     0.000     0.000     0.000     0.000     0.000     0.618     0.003     0.000 .00000E+00 0.000E+00 0.000E+00 0.000E+00 0.000E+00 0.000E+00
BIGSUB   0        0    0
BIGSUB   2        0    6.14730E+01    23.736    15.559    48.522    34.370   105.444     0.280     0.000     0.000    10.564     0.000     0.000     0.000     0.000     0.000     0.000     4.802     0.014     0.000 .00000E+00 0.000E+00 0.000E+00 0.000E+00 0.000E+00 0.000E+00
BIGSUB   0        0    0
BIGSUB   3        0    6.13769E+01    20.960    11.577    49.526    41.017   112.636     5.196     0.005    18.054    35.929     0.012     0.005     0.001     0.000     0.000     0.001    17.279     0.084     0.012 .00000E+00 0.000E+00 0.000E+00 0.000E+00 0.000E+00 0.000E+00
BIGSUB   0        0    0
BIGSUB   1        0    7.24803E+01     5.704     2.279    68.966    16.164    86.093     0.000     0.000     0.000     4.998     0.000     0.000     0.000     0.000     0.000     0.000     0.115     0.001     0.000 .00000E+00 0.000E+00 0.000E+00 0.000E+00 0.000E+00 0.000E+00
BIGSUB   0        0    0
BIGSUB   2        0    7.14730E+01    17.309    14.150    63.787    34.278    96.833     0.000     0.000     0.000     6.964     0.000     0.000     0.000     0.000     0.000     0.000     1.728     0.003     0.000 .00000E+00 0.000E+00 0.000E+00 0.000E+00 0.000E+00 0.000E+00
BIGSUB   0        0    0
BIGSUB   3        0    7.13769E+01    14.965    11.054    65.031    48.077   109.452     4.672     0.147    11.375    27.593     0.309     0.174     0.021     0.000     0.000     0.017    15.478     0.059     0.004 .00000E+00 0.000E+00 0.000E+00 0.000E+00 0.000E+00 0.000E+00
BIGSUB   0        0    0
BIGSUB   1        0    8.24803E+01    11.810     1.781    53.259    17.274    81.635     0.000     0.000     0.000     4.348     0.000     0.000     0.000     0.000     0.000     0.000     0.562     0.005     0.000 .00000E+00 0.000E+00 0.000E+00 0.000E+00 0.000E+00 0.000E+00
BIGSUB   0        0    0
BIGSUB   2        0    8.14730E+01    27.584    16.279    49.449    32.484    98.128     2.069     0.002     0.000    15.199     0.005     0.008     0.001     0.000     0.000     0.001    11.001     0.073     0.000 .00000E+00 0.000E+00 0.000E+00 0.000E+00 0.000E+00 0.000E+00
BIGSUB   0        0    0
BIGSUB   3        0    8.13769E+01    24.599    12.296    50.430    40.722   108.886    27.159     4.488    10.379    78.808    13.683     7.009     0.859     0.000     0.000     0.700    63.371     0.363     0.004 .00000E+00 0.000E+00 0.000E+00 0.000E+00 0.000E+00 0.000E+00
BIGSUB   0        0    0
BIGSUB   1        0    9.24803E+01    18.942     0.820    34.822    13.853    85.227     0.000     0.000     0.000     5.218     0.000     0.000     0.000     0.000     0.000     0.000     2.445     0.013     0.000 .00000E+00 0.000E+00 0.000E+00 0.000E+00 0.000E+00 0.000E+00
BIGSUB   0        0    0
BIGSUB   2        0    9.14730E+01    34.773    13.315    32.342    23.018   104.456     9.706     0.601     0.000    31.814     1.403     2.688     0.329     0.000     0.000     0.259    27.531     0.261     0.000 .00000E+00 0.000E+00 0.000E+00 0.000E+00 0.000E+00 0.000E+00
BIGSUB   0        0    0
BIGSUB   3        0    9.13769E+01    31.793     7.124    33.019    27.644   111.242    54.697    40.052    20.312   175.744   107.320    18.256     2.236     0.000     0.001     1.839   114.672     0.475     0.013 .00000E+00 0.000E+00 0.000E+00 0.000E+00 0.000E+00 0.000E+00
BIGSUB   0        0    0
BIGSUB   1        0   10.24803E+01    73.258     3.999    28.790    23.381   115.393     1.120     0.923     0.000    20.997     4.307     5.737     0.703     0.000     0.000     0.551    17.928     0.064     0.000 .00000E+00 0.000E+00 0.000E+00 0.000E+00 0.000E+00 0.000E+00
BIGSUB   0        0    0
BIGSUB   2        0   10.14730E+01    91.569    38.524     7.942     5.918   125.204    22.915     0.940     0.000    43.910     3.891     4.261     0.522     0.000     0.000     0.413    38.282     0.702     0.000 .00000E+00 0.000E+00 0.000E+00 0.000E+00 0.000E+00 0.000E+00
BIGSUB   0        0    0
BIGSUB   3        0   10.13769E+01    88.424    29.182    22.507    20.629   120.498    14.571     2.800    31.135    84.146     5.905     2.253     0.276     0.000     0.000     0.221    49.193     0.174     0.018 .00000E+00 0.000E+00 0.000E+00 0.000E+00 0.000E+00 0.000E+00
BIGSUB   0        0    0
BIGSUB   1        0   11.24803E+01    77.135     2.544    19.989    18.448   121.541    16.251     6.243     0.000    37.414    23.428    28.996     3.551     0.002     0.001     2.791    28.639     0.389     0.000 .00000E+00 0.000E+00 0.000E+00 0.000E+00 0.000E+00 0.000E+00
BIGSUB   0        0    0
BIGSUB   2        0   11.14730E+01    94.238    28.637     5.646     2.971   125.504    33.854     4.060     0.000    56.478    17.059    16.190     1.983     0.000     0.000     1.571    43.776     0.758     0.000 .00000E+00 0.000E+00 0.000E+00 0.000E+00 0.000E+00 0.000E+00
BIGSUB   0        0    0
BIGSUB   3        0   11.13769E+01    91.311    21.089    11.150     9.084   126.020    23.569     6.076    25.130    76.489    27.479     9.579     1.173     0.000     0.000     0.937    44.204     0.409     0.009 .00000E+00 0.000E+00 0.000E+00 0.000E+00 0.000E+00 0.000E+00
BIGSUB   0        0    0
BIGSUB   1        0   12.24803E+01    49.079     0.812    25.547    19.435   119.809    11.275     1.080     0.000    26.412     2.658     3.029     0.371     0.000     0.000     0.293    20.960     0.272     0.000 .00000E+00 0.000E+00 0.000E+00 0.000E+00 0.000E+00 0.000E+00
BIGSUB   0        0    0
BIGSUB   2        0   12.14730E+01    61.536     9.841    11.525     5.905   121.238    19.402     0.663     0.000    49.513     2.380     2.072     0.254     0.000     0.000     0.201    35.221     0.355     0.000 .00000E+00 0.000E+00 0.000E+00 0.000E+00 0.000E+00 0.000E+00
BIGSUB   0        0    0
BIGSUB   3        0   12.13769E+01    59.333     7.258    13.985     8.329   124.070    19.898     2.106    23.497    61.738     4.496     0.909     0.111     0.000     0.000     0.089    34.993     0.301     0.006 .00000E+00 0.000E+00 0.000E+00 0.000E+00 0.000E+00 0.000E+00
BIGSUB   0        0    0
BIGSUB   1        0 1989.24803E+01   465.468    43.201   372.682   184.015   119.809    63.084    16.134     0.000   210.123    50.624    83.432    10.220     0.006     0.003     7.994   158.607     2.217     0.000 .00000E+00 0.000E+00 0.000E+00 0.000E+00 0.000E+00 0.000E+00
BIGSUB   0        0    0
BIGSUB   2        0 1989.14730E+01   617.081   267.869   290.491   196.671   121.238   121.814    16.905     0.000   371.097    69.728   110.088    13.485     0.002     0.003    10.556   301.822     4.338     0.000 .00000E+00 0.000E+00 0.000E+00 0.000E+00 0.000E+00 0.000E+00
BIGSUB   0        0    0
BIGSUB   3        0 1989.13769E+01   589.683   193.275   329.983   268.967   124.070   219.193    81.670   170.710   819.160   246.204   169.233    20.730     0.005     0.006    16.390   560.490     4.706     0.098 .00000E+00 0.000E+00 0.000E+00 0.000E+00 0.000E+00 0.000E+00
BIGSUB   0        0    0
BIGSUB   1        0    1.24803E+01   128.037     0.532    14.447    14.166   121.268    43.294     5.129     0.000    74.662     9.272    16.188     1.983     0.000     0.001     1.563    62.353     0.770     0.000 .00000E+00 0.000E+00 0.000E+00 0.000E+00 0.000E+00 0.000E+00
BIGSUB   0        0    0
BIGSUB   2        0    1.14730E+01   147.179    25.822     3.434     1.839   121.238    39.749     4.587     0.000   112.329    13.383    15.897     1.947     0.000     0.000     1.539    91.232     0.549     0.000 .00000E+00 0.000E+00 0.000E+00 0.000E+00 0.000E+00 0.000E+00
BIGSUB   0        0    0
BIGSUB   3        0    1.13769E+01   143.980    17.119     3.763     2.060   121.809    43.203     6.693    23.959   128.495    17.329     9.909     1.214     0.000     0.000     0.962    96.671     0.479     0.007 .00000E+00 0.000E+00 0.000E+00 0.000E+00 0.000E+00 0.000E+00
BIGSUB   0        0    0
BIGSUB   1        0    2.24803E+01    76.339     8.865    18.544    17.053   121.542    20.594     4.662     0.000    47.886     9.945    11.029     1.351     0.001     0.001     1.068    31.900     0.291     0.000 .00000E+00 0.000E+00 0.000E+00 0.000E+00 0.000E+00 0.000E+00
BIGSUB   0        0    0
BIGSUB   2        0    2.14730E+01    91.592    39.413     4.005     2.155   122.407    27.504     5.232     0.000    87.908    23.181    17.831     2.184     0.000     0.000     1.731    64.229     0.314     0.000 .00000E+00 0.000E+00 0.000E+00 0.000E+00 0.000E+00 0.000E+00
BIGSUB   0        0    0
BIGSUB   3        0    2.13769E+01    88.986    22.369    12.926    11.660   121.809    19.570     6.123    26.005    85.194    26.031     9.862     1.208     0.000     0.000     0.961    51.911     0.185     0.008 .00000E+00 0.000E+00 0.000E+00 0.000E+00 0.000E+00 0.000E+00
BIGSUB   0        0    0
BIGSUB   1        0    3.24803E+01    64.907     2.340    34.745    29.373   118.442    13.772     2.310     0.000    45.133     4.742     4.996     0.612     0.000     0.000     0.484    26.842     0.202     0.000 .00000E+00 0.000E+00 0.000E+00 0.000E+00 0.000E+00 0.000E+00
BIGSUB   0        0    0
BIGSUB   2        0    3.14730E+01    81.323    32.104    16.943    10.835   123.800    25.280     3.179     0.000    85.715    13.466     9.725     1.191     0.000     0.000     0.947    59.142     0.250     0.000 .00000E+00 0.000E+00 0.000E+00 0.000E+00 0.000E+00 0.000E+00
BIGSUB   0        0    0
BIGSUB   3        0    3.13769E+01    78.491    15.851    28.882    24.222   120.568    17.582     3.679    26.603    78.051    10.549     3.746     0.459     0.000     0.000     0.366    46.465     0.161     0.006 .00000E+00 0.000E+00 0.000E+00 0.000E+00 0.000E+00 0.000E+00
BIGSUB   0        0    0
BIGSUB   1        0    4.24803E+01    53.079     0.794    48.422    38.093   111.301     5.710     3.193     0.000    33.298     8.537     7.557     0.926     0.000     0.000     0.733    14.168     0.068     0.000 .00000E+00 0.000E+00 0.000E+00 0.000E+00 0.000E+00 0.000E+00
BIGSUB   0        0    0
BIGSUB   2        0    4.14730E+01    69.323    13.920    34.159    28.349   113.123    16.373     4.300     0.000    63.699    19.728    11.263     1.379     0.000     0.000     1.099    35.643     0.153     0.000 .00000E+00 0.000E+00 0.000E+00 0.000E+00 0.000E+00 0.000E+00
BIGSUB   0        0    0
BIGSUB   3        0    4.13769E+01    66.479     6.314    45.668    40.082   113.149     6.976     3.952    19.045    49.892    20.819     5.423     0.664     0.000     0.000     0.531    25.713     0.059     0.003 .00000E+00 0.000E+00 0.000E+00 0.000E+00 0.000E+00 0.000E+00
BIGSUB   0        0    0
BIGSUB   1        0    5.24803E+01    18.806     0.568    64.235    28.400   100.859     0.000     0.000     0.000    16.700     0.000     0.000     0.000     0.000     0.000     0.000     2.097     0.002     0.000 .00000E+00 0.000E+00 0.000E+00 0.000E+00 0.000E+00 0.000E+00
BIGSUB   0        0    0
BIGSUB   2        0    5.14730E+01    32.782     9.133    59.557    36.151   105.395     0.014     0.000     0.000    27.810     0.000     0.000     0.000     0.000     0.000     0.000     5.077     0.001     0.000 .00000E+00 0.000E+00 0.000E+00 0.000E+00 0.000E+00 0.000E+00
BIGSUB   0        0    0
BIGSUB   3        0    5.13769E+01    30.227     4.736    60.771    35.526   104.511     0.271     0.040     8.611    14.874     0.063     0.000     0.000     0.000     0.000     0.000     5.184     0.002     0.001 .00000E+00 0.000E+00 0.000E+00 0.000E+00 0.000E+00 0.000E+00
BIGSUB   0        0    0
BIGSUB   1        0    6.24803E+01    17.675     1.960    50.958    22.676    95.602     0.000     0.000     0.000    12.710     0.000     0.000     0.000     0.000     0.000     0.000     1.352     0.002     0.000 .00000E+00 0.000E+00 0.000E+00 0.000E+00 0.000E+00 0.000E+00
BIGSUB   0        0    0
BIGSUB   2        0    6.14730E+01    35.081    18.419    47.253    33.479   102.990     0.005     0.000     0.000    22.493     0.000     0.000     0.000     0.000     0.000     0.000     4.514     0.001     0.000 .00000E+00 0.000E+00 0.000E+00 0.000E+00 0.000E+00 0.000E+00
BIGSUB   0        0    0
BIGSUB   3        0    6.13769E+01    31.881    13.235    48.246    32.288   101.171     0.096     0.000     1.477     6.354     0.000     0.000     0.000     0.000     0.000     0.000     4.081     0.002     0.000 .00000E+00 0.000E+00 0.000E+00 0.000E+00 0.000E+00 0.000E+00
BIGSUB   0        0    0
BIGSUB   1        0    7.24803E+01    10.365     1.583    54.936    18.636    88.200     0.000     0.000     0.000     9.360     0.000     0.000     0.000     0.000     0.000     0.000     0.345     0.001     0.000 .00000E+00 0.000E+00 0.000E+00 0.000E+00 0.000E+00 0.000E+00
BIGSUB   0        0    0
BIGSUB   2        0    7.14730E+01    24.759    14.497    51.127    29.724    96.307     0.005     0.000     0.000    16.836     0.000     0.000     0.000     0.000     0.000     0.000     2.459     0.001     0.000 .00000E+00 0.000E+00 0.000E+00 0.000E+00 0.000E+00 0.000E+00
BIGSUB   0        0    0
BIGSUB   3        0    7.13769E+01    21.988    10.281    52.109    27.840    94.552     0.134     0.002     0.360     3.314     0.004     0.000     0.000     0.000     0.000     0.000     2.323     0.002     0.000 .00000E+00 0.000E+00 0.000E+00 0.000E+00 0.000E+00 0.000E+00
BIGSUB   0        0    0
BIGSUB   1        0    8.24803E+01    14.879     1.514    45.594    15.402    86.982     0.000     0.000     0.000     8.443     0.000     0.000     0.000     0.000     0.000     0.000     1.695     0.003     0.000 .00000E+00 0.000E+00 0.000E+00 0.000E+00 0.000E+00 0.000E+00
BIGSUB   0        0    0
BIGSUB   2        0    8.14730E+01    31.609    14.817    42.322    26.775    97.063     0.026     0.001     0.000    15.397     0.001     0.000     0.000     0.000     0.000     0.000     4.594     0.002     0.000 .00000E+00 0.000E+00 0.000E+00 0.000E+00 0.000E+00 0.000E+00
BIGSUB   0        0    0
BIGSUB   3        0    8.13769E+01    28.412     9.592    43.182    25.136    94.682     0.411     0.144     0.196     5.554     0.336     0.000     0.000     0.000     0.000     0.000     4.744     0.003     0.000 .00000E+00 0.000E+00 0.000E+00 0.000E+00 0.000E+00 0.000E+00
BIGSUB   0        0    0
BIGSUB   1        0    9.24803E+01    21.526     0.820    35.649    18.931    87.824     0.000     0.000     0.000     7.371     0.000     0.000     0.000     0.000     0.000     0.000     2.510     0.002     0.000 .00000E+00 0.000E+00 0.000E+00 0.000E+00 0.000E+00 0.000E+00
BIGSUB   0        0    0
BIGSUB   2        0    9.14730E+01    38.565    13.197    33.017    25.864   102.427     0.048     0.003     0.000    15.569     0.002     0.001     0.000     0.000     0.000     0.000     7.766     0.002     0.000 .00000E+00 0.000E+00 0.000E+00 0.000E+00 0.000E+00 0.000E+00
BIGSUB   0        0    0
BIGSUB   3        0    9.13769E+01    35.477     6.913    33.742    24.479    99.381     0.632     0.506     0.305     9.238     0.927     0.000     0.000     0.000     0.000     0.000     8.084     0.003     0.000 .00000E+00 0.000E+00 0.000E+00 0.000E+00 0.000E+00 0.000E+00
BIGSUB   0        0    0
BIGSUB   1        0   10.24803E+01    58.631     1.274    29.442    21.672   110.921     0.631     0.106     0.000    17.179     0.204     0.175     0.021     0.000     0.000     0.017    13.348     0.018     0.000 .00000E+00 0.000E+00 0.000E+00 0.000E+00 0.000E+00 0.000E+00
BIGSUB   0        0    0
BIGSUB   2        0   10.14730E+01    76.348    19.651    19.450    17.173   120.773     5.822     0.320     0.000    39.755     1.585     0.700     0.086     0.000     0.000     0.068    33.417     0.122     0.000 .00000E+00 0.000E+00 0.000E+00 0.000E+00 0.000E+00 0.000E+00
BIGSUB   0        0    0
BIGSUB   3        0   10.13769E+01    73.294    11.667    26.554    23.971   118.119     2.883     1.024     0.495    30.839     1.847     0.185     0.023     0.000     0.000     0.018    29.050     0.069     0.000 .00000E+00 0.000E+00 0.000E+00 0.000E+00 0.000E+00 0.000E+00
BIGSUB   0        0    0
BIGSUB   1        0   11.24803E+01   127.465     1.032    23.019    22.489   121.543    30.957     9.328     0.000    63.284    28.696    20.254     2.480     0.001     0.001     1.973    50.248     0.440     0.000 .00000E+00 0.000E+00 0.000E+00 0.000E+00 0.000E+00 0.000E+00
BIGSUB   0        0    0
BIGSUB   2        0   11.14730E+01   145.448    20.581     5.019     2.801   121.238    38.146     6.064     0.000    89.240    20.639     9.869     1.208     0.000     0.000     0.967    76.515     0.449     0.000 .00000E+00 0.000E+00 0.000E+00 0.000E+00 0.000E+00 0.000E+00
BIGSUB   0        0    0
BIGSUB   3        0   11.13769E+01   142.463    12.867     7.991     6.323   121.793    32.703     8.316     4.012    93.728    26.443     5.699     0.698     0.000     0.000     0.562    81.126     0.418     0.001 .00000E+00 0.000E+00 0.000E+00 0.000E+00 0.000E+00 0.000E+00
BIGSUB   0        0    0
BIGSUB   1        0   12.24803E+01   135.292     1.710     6.288     4.783   121.542    47.942    11.217     0.000    89.011    30.042    15.572     1.907     0.000     0.001     1.523    69.470     0.564     0.000 .00000E+00 0.000E+00 0.000E+00 0.000E+00 0.000E+00 0.000E+00
BIGSUB   0        0    0
BIGSUB   2        0   12.14730E+01   153.154     9.466     3.607     1.929   121.238    30.563     8.326     0.000    93.355    37.687    12.322     1.509     0.000     0.000     1.210    73.583     0.282     0.000 .00000E+00 0.000E+00 0.000E+00 0.000E+00 0.000E+00 0.000E+00
BIGSUB   0        0    0
BIGSUB   3        0   12.13769E+01   150.178     9.797     3.944     2.157   121.809    36.035    10.548    17.138   109.064    46.855     6.553     0.802     0.000     0.000     0.646    80.884     0.367     0.004 .00000E+00 0.000E+00 0.000E+00 0.000E+00 0.000E+00 0.000E+00
BIGSUB   0        0    0
BIGSUB   1        0 1990.24803E+01   726.999    22.992   426.279   251.676   121.542   162.899    35.946     0.000   425.036    91.438    75.772     9.279     0.003     0.003     7.361   276.328     2.361     0.000 .00000E+00 0.000E+00 0.000E+00 0.000E+00 0.000E+00 0.000E+00
BIGSUB   0        0    0
BIGSUB   2        0 1990.14730E+01   927.163   231.020   319.892   217.073   121.238   183.536    32.013     0.000   670.106   129.674    77.609     9.504     0.000     0.002     7.562   458.172     2.127     0.000 .00000E+00 0.000E+00 0.000E+00 0.000E+00 0.000E+00 0.000E+00
BIGSUB   0        0    0
BIGSUB   3        0 1990.13769E+01   891.854   140.741   367.778   255.744   121.809   160.496    41.029   128.206   614.598   151.203    41.377     5.067     0.001     0.001     4.047   436.235     1.749     0.030 .00000E+00 0.000E+00 0.000E+00 0.000E+00 0.000E+00 0.000E+00
BIGSUB   0        0    0
BIGSUB   1        0    1.24803E+01   106.022     4.466     6.138     4.075   121.139    41.908     4.209     0.000    80.657     7.029     5.948     0.728     0.000     0.000     0.578    60.455     0.364     0.000 .00000E+00 0.000E+00 0.000E+00 0.000E+00 0.000E+00 0.000E+00
BIGSUB   0        0    0
BIGSUB   2        0    1.14730E+01   124.563    39.275     3.915     2.113   121.238    38.998     7.282     0.000   114.390    22.440    13.299     1.628     0.000     0.000     1.293    90.973     0.279     0.000 .00000E+00 0.000E+00 0.000E+00 0.000E+00 0.000E+00 0.000E+00
BIGSUB   0        0    0
BIGSUB   3        0    1.13769E+01   121.450    34.018     4.334     2.395   121.809    39.204     7.965    26.869   130.843    25.820    10.770     1.319     0.000     0.000     1.044    95.235     0.298     0.008 .00000E+00 0.000E+00 0.000E+00 0.000E+00 0.000E+00 0.000E+00
BIGSUB   0        0    0
BIGSUB   1        0    2.24803E+01   129.967     1.452    22.736    20.845   121.447    36.603    16.234     0.000    91.753    57.618    26.108     3.197     0.000     0.001     2.546    55.277     0.247     0.000 .00000E+00 0.000E+00 0.000E+00 0.000E+00 0.000E+00 0.000E+00
BIGSUB   0        0    0
BIGSUB   2        0    2.14730E+01   145.486    49.528     7.551     3.925   121.238    44.649    15.213     0.000   140.458    65.610    19.886     2.435     0.000     0.001     1.948   106.078     0.251     0.000 .00000E+00 0.000E+00 0.000E+00 0.000E+00 0.000E+00 0.000E+00
BIGSUB   0        0    0
BIGSUB   3        0    2.13769E+01   142.933    23.958     9.178     5.611   121.801    38.562    15.337    30.074   142.762    60.866    13.299     1.628     0.000     0.000     1.300    96.408     0.241     0.009 .00000E+00 0.000E+00 0.000E+00 0.000E+00 0.000E+00 0.000E+00
BIGSUB   0        0    0
BIGSUB   1        0    3.24803E+01   147.017     3.057    31.617    28.540   118.857    43.957    10.356     0.000   109.559    29.483     8.732     1.069     0.000     0.001     0.861    71.168     0.256     0.000 .00000E+00 0.000E+00 0.000E+00 0.000E+00 0.000E+00 0.000E+00
BIGSUB   0        0    0
BIGSUB   2        0    3.14730E+01   164.948    44.607     6.492     3.480   122.219    43.874    10.851     0.000   148.865    35.376     6.680     0.818     0.000     0.000     0.661   110.628     0.201     0.000 .00000E+00 0.000E+00 0.000E+00 0.000E+00 0.000E+00 0.000E+00
BIGSUB   0        0    0
BIGSUB   3        0    3.13769E+01   161.983    27.145    17.348    14.079   121.683    38.364    12.078    38.689   156.470    40.934     5.402     0.661     0.000     0.000     0.533   104.388     0.206     0.011 .00000E+00 0.000E+00 0.000E+00 0.000E+00 0.000E+00 0.000E+00
BIGSUB   0        0    0
BIGSUB   1        0    4.24803E+01    61.179     1.328    33.386    30.599   115.738    11.431     1.921     0.000    52.514     3.782     0.918     0.112     0.000     0.000     0.091    20.856     0.057     0.000 .00000E+00 0.000E+00 0.000E+00 0.000E+00 0.000E+00 0.000E+00
BIGSUB   0        0    0
BIGSUB   2        0    4.14730E+01    79.375    36.870    11.483     9.667   123.674    24.730     3.409     0.000    92.603    18.071     1.884     0.231     0.000     0.000     0.188    58.866     0.102     0.000 .00000E+00 0.000E+00 0.000E+00 0.000E+00 0.000E+00 0.000E+00
BIGSUB   0        0    0
BIGSUB   3        0    4.13769E+01    76.218    11.876    29.704    28.755   118.884    13.410     2.744    33.199    74.541    13.272     1.042     0.128     0.000     0.000     0.104    37.199     0.071     0.006 .00000E+00 0.000E+00 0.000E+00 0.000E+00 0.000E+00 0.000E+00
BIGSUB   0        0    0
BIGSUB   1        0    5.24803E+01    23.108     0.526    49.057    31.422   105.233     0.007     0.021     0.000    31.076     0.061     0.010     0.001     0.000     0.000     0.001     3.073     0.000     0.000 .00000E+00 0.000E+00 0.000E+00 0.000E+00 0.000E+00 0.000E+00
BIGSUB   0        0    0
BIGSUB   2        0    5.14730E+01    39.588    11.872    42.597    35.502   109.978     6.119     0.102     0.000    45.902     0.433     0.038     0.005     0.000     0.000     0.004    14.888     0.027     0.000 .00000E+00 0.000E+00 0.000E+00 0.000E+00 0.000E+00 0.000E+00
BIGSUB   0        0    0
BIGSUB   3        0    5.13769E+01    36.505     4.641    46.466    38.121   109.843     0.900     0.118    21.738    31.494     0.384     0.023     0.003     0.000     0.000     0.002     8.306     0.004     0.002 .00000E+00 0.000E+00 0.000E+00 0.000E+00 0.000E+00 0.000E+00
BIGSUB   0        0    0
BIGSUB   1        0    6.24803E+01     9.469     0.924    57.125    21.430    94.235     0.000     0.000     0.000    22.244     0.000     0.000     0.000     0.000     0.000     0.000     0.240     0.000     0.000 .00000E+00 0.000E+00 0.000E+00 0.000E+00 0.000E+00 0.000E+00
BIGSUB   0        0    0
BIGSUB   2        0    6.14730E+01    24.142    11.154    53.036    32.462   100.196     0.004     0.000     0.000    27.780     0.000     0.000     0.000     0.000     0.000     0.000     2.127     0.001     0.000 .00000E+00 0.000E+00 0.000E+00 0.000E+00 0.000E+00 0.000E+00
BIGSUB   0        0    0
BIGSUB   3        0    6.13769E+01    21.367     6.391    54.088    31.503    99.339     0.106     0.000     9.634    12.527     0.000     0.000     0.000     0.000     0.000     0.000     1.836     0.001     0.000 .00000E+00 0.000E+00 0.000E+00 0.000E+00 0.000E+00 0.000E+00
BIGSUB   0        0    0
BIGSUB   1        0    7.24803E+01     7.681     1.371    64.870    17.243    85.899     0.000     0.000     0.000    17.837     0.000     0.000     0.000     0.000     0.000     0.000     0.287     0.001     0.000 .00000E+00 0.000E+00 0.000E+00 0.000E+00 0.000E+00 0.000E+00
BIGSUB   0        0    0
BIGSUB   2        0    7.14730E+01    20.257    13.348    60.161    27.383    92.518     0.002     0.000     0.000    22.442     0.000     0.000     0.000     0.000     0.000     0.000     1.506     0.001     0.000 .00000E+00 0.000E+00 0.000E+00 0.000E+00 0.000E+00 0.000E+00
BIGSUB   0        0    0
BIGSUB   3        0    7.13769E+01    17.703     9.689    61.357    26.220    91.306     0.128     0.002     1.497     3.796     0.003     0.000     0.000     0.000     0.000     0.000     1.449     0.002     0.000 .00000E+00 0.000E+00 0.000E+00 0.000E+00 0.000E+00 0.000E+00
BIGSUB   0        0    0
BIGSUB   1        0    8.24803E+01    12.675     0.444    48.452    15.738    82.894     0.000     0.000     0.000    14.221     0.000     0.000     0.000     0.000     0.000     0.000     1.051     0.002     0.000 .00000E+00 0.000E+00 0.000E+00 0.000E+00 0.000E+00 0.000E+00
BIGSUB   0        0    0
BIGSUB   2        0    8.14730E+01    28.079     8.320    44.985    24.856    92.595     0.031     0.000     0.000    19.674     0.000     0.000     0.000     0.000     0.000     0.000     3.791     0.002     0.000 .00000E+00 0.000E+00 0.000E+00 0.000E+00 0.000E+00 0.000E+00
BIGSUB   0        0    0
BIGSUB   3        0    8.13769E+01    25.093     3.960    45.893    23.742    90.565     0.483     0.206     0.241     5.169     0.421     0.000     0.000     0.000     0.000     0.000     4.084     0.003     0.000 .00000E+00 0.000E+00 0.000E+00 0.000E+00 0.000E+00 0.000E+00
BIGSUB   0        0    0
BIGSUB   1        0    9.24803E+01    14.011     1.605    38.711    14.952    81.494     0.000     0.000     0.000    10.849     0.000     0.000     0.000     0.000     0.000     0.000     1.352     0.002     0.000 .00000E+00 0.000E+00 0.000E+00 0.000E+00 0.000E+00 0.000E+00
BIGSUB   0        0    0
BIGSUB   2        0    9.14730E+01    29.690    12.654    35.876    22.043    95.669     0.052     0.006     0.000    16.564     0.003     0.001     0.000     0.000     0.000     0.000     5.040     0.002     0.000 .00000E+00 0.000E+00 0.000E+00 0.000E+00 0.000E+00 0.000E+00
BIGSUB   0        0    0
BIGSUB   3        0    9.13769E+01    26.708     8.248    36.645    20.695    92.934     0.641     0.637     0.330     7.049     1.196     0.000     0.000     0.000     0.000     0.000     5.615     0.003     0.000 .00000E+00 0.000E+00 0.000E+00 0.000E+00 0.000E+00 0.000E+00
BIGSUB   0        0    0
BIGSUB   1        0   10.24803E+01    52.837     2.782    29.649    18.430   105.613     0.000     0.216     0.000    17.196     0.523     0.091     0.011     0.000     0.000     0.009     9.704     0.002     0.000 .00000E+00 0.000E+00 0.000E+00 0.000E+00 0.000E+00 0.000E+00
BIGSUB   0        0    0
BIGSUB   2        0   10.14730E+01    70.681    27.399    18.486    14.676   125.490     3.459     0.948     0.000    28.902     3.903     0.351     0.043     0.000     0.000     0.035    19.092     0.056     0.000 .00000E+00 0.000E+00 0.000E+00 0.000E+00 0.000E+00 0.000E+00
BIGSUB   0        0    0
BIGSUB   3        0   10.13769E+01    67.516    19.672    26.836    22.594   115.789     0.818     1.232     0.494    22.393     2.908     0.164     0.020     0.000     0.000     0.016    20.302     0.022     0.000 .00000E+00 0.000E+00 0.000E+00 0.000E+00 0.000E+00 0.000E+00
BIGSUB   0        0    0
BIGSUB   1        0   11.24803E+01    58.323     2.769    24.384    20.472   120.694     3.306     1.867     0.000    24.515     5.647     0.949     0.116     0.001     0.000     0.094    17.386     0.044     0.000 .00000E+00 0.000E+00 0.000E+00 0.000E+00 0.000E+00 0.000E+00
BIGSUB   0        0    0
BIGSUB   2        0   11.14730E+01    73.298    23.637     8.799     4.554   125.504    26.391     0.728     0.000    42.831     2.308     0.218     0.027     0.000     0.000     0.022    34.483     0.241     0.000 .00000E+00 0.000E+00 0.000E+00 0.000E+00 0.000E+00 0.000E+00
BIGSUB   0        0    0
BIGSUB   3        0   11.13769E+01    70.675    18.630    13.427    10.297   125.843    18.183     2.001     1.087    33.368     5.968     0.368     0.045     0.000     0.000     0.037    29.997     0.204     0.000 .00000E+00 0.000E+00 0.000E+00 0.000E+00 0.000E+00 0.000E+00
BIGSUB   0        0    0
BIGSUB   1        0   12.24803E+01    74.564     0.368    16.717    15.684   121.193    21.704     2.750     0.000    41.321     8.416     1.339     0.164     0.000     0.000     0.133    33.380     0.194     0.000 .00000E+00 0.000E+00 0.000E+00 0.000E+00 0.000E+00 0.000E+00
BIGSUB   0        0    0
BIGSUB   2        0   12.14730E+01    91.859     7.718     4.322     2.286   121.238    24.716     1.821     0.000    60.728     9.020     0.683     0.084     0.000     0.000     0.068    48.496     0.187     0.000 .00000E+00 0.000E+00 0.000E+00 0.000E+00 0.000E+00 0.000E+00
BIGSUB   0        0    0
BIGSUB   3        0   12.13769E+01    88.823     6.252     4.669     2.518   121.809    28.732     3.648     9.734    65.327    11.967     0.644     0.079     0.000     0.000     0.064    51.555     0.267     0.001 .00000E+00 0.000E+00 0.000E+00 0.000E+00 0.000E+00 0.000E+00
BIGSUB   0        0    0
BIGSUB   1        0 1991.24803E+01   696.853    21.091   422.843   239.431   121.193   158.915    37.575     0.000   513.743   112.558    44.094     5.399     0.002     0.002     4.314   274.228     1.170     0.000 .00000E+00 0.000E+00 0.000E+00 0.000E+00 0.000E+00 0.000E+00
BIGSUB   0        0    0
BIGSUB   2        0 1991.14730E+01   891.966   286.383   297.703   182.947   121.238   213.025    40.359     0.000   761.138   157.165    43.041     5.270     0.000     0.001     4.220   495.967     1.350     0.000 .00000E+00 0.000E+00 0.000E+00 0.000E+00 0.000E+00 0.000E+00
BIGSUB   0        0    0
BIGSUB   3        0 1991.13769E+01   856.974   174.479   349.945   226.531   121.809   179.529    45.969   173.586   685.739   163.739    31.711     3.883     0.001     0.001     3.101   456.374     1.320     0.038 .00000E+00 0.000E+00 0.000E+00 0.000E+00 0.000E+00 0.000E+00
BIGSUB   0        0    0
BIGSUB   1        0    1.24803E+01   103.725     0.841    21.118    19.401   119.779    30.225     9.656     0.000    66.423    30.598    12.092     1.480     0.001     0.001     1.175    48.259     0.243     0.000 .00000E+00 0.000E+00 0.000E+00 0.000E+00 0.000E+00 0.000E+00
BIGSUB   0        0    0
BIGSUB   2        0    1.14730E+01   121.033    27.135     5.585     2.951   121.238    35.314    10.516     0.000   110.686    44.505    14.618     1.789     0.000     0.000     1.419    85.839     0.219     0.000 .00000E+00 0.000E+00 0.000E+00 0.000E+00 0.000E+00 0.000E+00
BIGSUB   0        0    0
BIGSUB   3        0    1.13769E+01   118.131    19.158     6.023     3.244   126.075    32.881    12.025    21.384   116.302    47.579    13.637     1.669     0.000     0.000     1.321    82.271     0.238     0.005 .00000E+00 0.000E+00 0.000E+00 0.000E+00 0.000E+00 0.000E+00
BIGSUB   0        0    0
BIGSUB   1        0    2.24803E+01   103.176     1.944    20.119    18.671   120.609    30.453     6.507     0.000    63.206    24.601     6.438     0.788     0.000     0.000     0.631    45.089     0.194     0.000 .00000E+00 0.000E+00 0.000E+00 0.000E+00 0.000E+00 0.000E+00
BIGSUB   0        0    0
BIGSUB   2        0    2.14730E+01   120.138    37.992     3.678     1.995   121.238    38.804     5.630     0.000   102.564    22.716     4.857     0.594     0.000     0.000     0.476    79.574     0.192     0.000 .00000E+00 0.000E+00 0.000E+00 0.000E+00 0.000E+00 0.000E+00
BIGSUB   0        0    0
BIGSUB   3        0    2.13769E+01   117.237    19.412     8.537     7.519   120.998    38.823     7.879    25.718   105.000    33.039     5.653     0.692     0.000     0.000     0.553    70.600     0.228     0.006 .00000E+00 0.000E+00 0.000E+00 0.000E+00 0.000E+00 0.000E+00
BIGSUB   0        0    0
BIGSUB   1        0    3.24803E+01    93.106     2.388    42.666    37.123   121.543    16.580     6.512     0.000    53.327    21.475     4.867     0.596     0.001     0.000     0.479    30.459     0.096     0.000 .00000E+00 0.000E+00 0.000E+00 0.000E+00 0.000E+00 0.000E+00
BIGSUB   0        0    0
BIGSUB   2        0    3.14730E+01   110.433    28.511    23.870    19.549   124.335    24.367     4.344     0.000    87.607    19.033     3.413     0.418     0.000     0.000     0.336    60.257     0.106     0.000 .00000E+00 0.000E+00 0.000E+00 0.000E+00 0.000E+00 0.000E+00
BIGSUB   0        0    0
BIGSUB   3        0    3.13769E+01   107.521    16.158    40.060    35.945   121.809    14.491     4.798    30.191    82.561    19.221     2.671     0.327     0.000     0.000     0.263    46.508     0.074     0.006 .00000E+00 0.000E+00 0.000E+00 0.000E+00 0.000E+00 0.000E+00
BIGSUB   0        0    0
BIGSUB   1        0    4.24803E+01    33.242     1.426    42.809    29.595   113.707     2.821     2.741     0.000    29.907     4.857     1.196     0.146     0.001     0.000     0.118    10.479     0.025     0.000 .00000E+00 0.000E+00 0.000E+00 0.000E+00 0.000E+00 0.000E+00
BIGSUB   0        0    0
BIGSUB   2        0    4.14730E+01    49.367    19.259    37.748    32.949   117.185     7.671     4.740     0.000    51.101    10.974     2.868     0.351     0.000     0.000     0.283    22.782     0.041     0.000 .00000E+00 0.000E+00 0.000E+00 0.000E+00 0.000E+00 0.000E+00
BIGSUB   0        0    0
BIGSUB   3        0    4.13769E+01    46.401    10.541    39.321    33.618   116.776     4.470     5.054    21.192    48.073    13.027     2.629     0.322     0.000     0.000     0.259    20.792     0.028     0.002 .00000E+00 0.000E+00 0.000E+00 0.000E+00 0.000E+00 0.000E+00
BIGSUB   0        0    0
BIGSUB   1        0    5.24803E+01     8.681     0.241    80.032    28.240    95.003     0.000     0.007     0.000    15.763     0.000     0.000     0.000     0.000     0.000     0.000     0.733     0.000     0.000 .00000E+00 0.000E+00 0.000E+00 0.000E+00 0.000E+00 0.000E+00
BIGSUB   0        0    0
BIGSUB   2        0    5.14730E+01    19.932     4.714    74.303    37.136    99.081     0.010     0.002     0.000    23.571     0.000     0.000     0.000     0.000     0.000     0.000     2.024     0.001     0.000 .00000E+00 0.000E+00 0.000E+00 0.000E+00 0.000E+00 0.000E+00
BIGSUB   0        0    0
BIGSUB   3        0    5.13769E+01    17.797     2.160    75.687    36.586    98.160     0.258     0.042    10.931    14.172     0.059     0.000     0.000     0.000     0.000     0.000     2.280     0.001     0.001 .00000E+00 0.000E+00 0.000E+00 0.000E+00 0.000E+00 0.000E+00
BIGSUB   0        0    0
BIGSUB   1        0    6.24803E+01     9.162     1.039    62.066    17.759    87.297     0.000     0.000     0.000    12.053     0.000     0.000     0.000     0.000     0.000     0.000     0.497     0.001     0.000 .00000E+00 0.000E+00 0.000E+00 0.000E+00 0.000E+00 0.000E+00
BIGSUB   0        0    0
BIGSUB   2        0    6.14730E+01    21.380    10.997    57.672    24.807    93.868     0.000     0.000     0.000    19.351     0.000     0.000     0.000     0.000     0.000     0.000     2.674     0.002     0.000 .00000E+00 0.000E+00 0.000E+00 0.000E+00 0.000E+00 0.000E+00
BIGSUB   0        0    0
BIGSUB   3        0    6.13769E+01    19.034     6.950    58.786    24.540    92.041     0.075     0.000     2.063     5.112     0.000     0.000     0.000     0.000     0.000     0.000     2.344     0.002     0.000 .00000E+00 0.000E+00 0.000E+00 0.000E+00 0.000E+00 0.000E+00
BIGSUB   0        0    0
BIGSUB   1        0    7.24803E+01     8.006     2.245    61.902    14.534    81.580     0.000     0.000     0.000     9.656     0.000     0.000     0.000     0.000     0.000     0.000     0.529     0.001     0.000 .00000E+00 0.000E+00 0.000E+00 0.000E+00 0.000E+00 0.000E+00
BIGSUB   0        0    0
BIGSUB   2        0    7.14730E+01    20.419    14.534    57.219    23.332    89.580     0.001     0.000     0.000    15.409     0.000     0.000     0.000     0.000     0.000     0.000     2.199     0.001     0.000 .00000E+00 0.000E+00 0.000E+00 0.000E+00 0.000E+00 0.000E+00
BIGSUB   0        0    0
BIGSUB   3        0    7.13769E+01    17.968    11.325    58.326    22.348    87.361     0.094     0.004     0.318     2.880     0.009     0.000     0.000     0.000     0.000     0.000     2.000     0.002     0.000 .00000E+00 0.000E+00 0.000E+00 0.000E+00 0.000E+00 0.000E+00
BIGSUB   0        0    0
BIGSUB   1        0    8.24803E+01    14.168     1.998    50.549    15.638    79.825     0.000     0.000     0.000     8.147     0.000     0.000     0.000     0.000     0.000     0.000     1.330     0.003     0.000 .00000E+00 0.000E+00 0.000E+00 0.000E+00 0.000E+00 0.000E+00
BIGSUB   0        0    0
BIGSUB   2        0    8.14730E+01    29.646    16.420    46.680    24.742    90.887     0.022     0.000     0.000    13.606     0.000     0.000     0.000     0.000     0.000     0.000     3.726     0.002     0.000 .00000E+00 0.000E+00 0.000E+00 0.000E+00 0.000E+00 0.000E+00
BIGSUB   0        0    0
BIGSUB   3        0    8.13769E+01    26.766    11.629    47.615    23.454    87.949     0.388     0.086     0.153     4.900     0.169     0.000     0.000     0.000     0.000     0.000     4.244     0.004     0.000 .00000E+00 0.000E+00 0.000E+00 0.000E+00 0.000E+00 0.000E+00
BIGSUB   0        0    0
BIGSUB   1        0    9.24803E+01    14.029     0.418    42.688    15.415    78.260     0.000     0.000     0.000     6.022     0.000     0.000     0.000     0.000     0.000     0.000     1.117     0.002     0.000 .00000E+00 0.000E+00 0.000E+00 0.000E+00 0.000E+00 0.000E+00
BIGSUB   0        0    0
BIGSUB   2        0    9.14730E+01    29.873     7.301    39.625    23.512    93.352     0.050     0.005     0.000    11.861     0.004     0.001     0.000     0.000     0.000     0.000     4.738     0.002     0.000 .00000E+00 0.000E+00 0.000E+00 0.000E+00 0.000E+00 0.000E+00
BIGSUB   0        0    0
BIGSUB   3        0    9.13769E+01    26.888     3.198    40.449    22.087    89.881     0.671     0.653     0.283     6.259     1.054     0.000     0.000     0.000     0.000     0.000     5.019     0.003     0.000 .00000E+00 0.000E+00 0.000E+00 0.000E+00 0.000E+00 0.000E+00
BIGSUB   0        0    0
BIGSUB   1        0   10.24803E+01    80.408     4.351    24.202    19.736   113.413     1.290     4.360     0.000    28.298    21.868     2.987     0.366     0.001     0.000     0.296    20.174     0.031     0.000 .00000E+00 0.000E+00 0.000E+00 0.000E+00 0.000E+00 0.000E+00
BIGSUB   0        0    0
BIGSUB   2        0   10.14730E+01    98.381    39.365     9.602     7.016   125.311    17.885     4.627     0.000    46.760    21.884     2.222     0.272     0.000     0.000     0.220    36.462     0.214     0.000 .00000E+00 0.000E+00 0.000E+00 0.000E+00 0.000E+00 0.000E+00
BIGSUB   0        0    0
BIGSUB   3        0   10.13769E+01    95.244    26.562    17.141    15.160   119.835    10.654     5.860     0.585    42.605    32.856     2.653     0.325     0.000     0.000     0.263    35.914     0.159     0.000 .00000E+00 0.000E+00 0.000E+00 0.000E+00 0.000E+00 0.000E+00
BIGSUB   0        0    0
BIGSUB   1        0   11.24803E+01    54.123     1.904    16.366    13.233   120.991     8.869     5.296     0.000    26.746    18.157     2.395     0.293     0.000     0.000     0.238    18.488     0.089     0.000 .00000E+00 0.000E+00 0.000E+00 0.000E+00 0.000E+00 0.000E+00
BIGSUB   0        0    0
BIGSUB   2        0   11.14730E+01    70.423    18.139    11.883    10.710   125.504    20.362     1.994     0.000    34.418     8.247     0.739     0.090     0.000     0.000     0.073    25.652     0.170     0.000 .00000E+00 0.000E+00 0.000E+00 0.000E+00 0.000E+00 0.000E+00
BIGSUB   0        0    0
BIGSUB   3        0   11.13769E+01    67.580    13.608    14.421    13.392   125.855    13.785     4.327     3.301    35.129    17.704     1.061     0.130     0.000     0.000     0.105    27.245     0.133     0.000 .00000E+00 0.000E+00 0.000E+00 0.000E+00 0.000E+00 0.000E+00
BIGSUB   0        0    0
BIGSUB   1        0   12.24803E+01    90.674     0.458    18.164    15.571   121.533    26.589     6.128     0.000    50.671    16.473     1.946     0.238     0.000     0.000     0.194    40.516     0.243     0.000 .00000E+00 0.000E+00 0.000E+00 0.000E+00 0.000E+00 0.000E+00
BIGSUB   0        0    0
BIGSUB   2        0   12.14730E+01   106.207     7.797     7.304     3.779   121.238    27.867     1.850     0.000    66.367     5.783     0.528     0.065     0.000     0.000     0.052    54.287     0.205     0.000 .00000E+00 0.000E+00 0.000E+00 0.000E+00 0.000E+00 0.000E+00
BIGSUB   0        0    0
BIGSUB   3        0   12.13769E+01   103.508     6.170     7.688     4.029   121.808    30.721     5.090    11.548    76.938    14.373     0.875     0.107     0.000     0.000     0.087    59.918     0.280     0.002 .00000E+00 0.000E+00 0.000E+00 0.000E+00 0.000E+00 0.000E+00
BIGSUB   0        0    0
BIGSUB   1        0 1992.24803E+01   612.502    19.253   482.681   244.916   121.533   116.828    41.206     0.000   370.220   138.029    31.921     3.907     0.004     0.002     3.130   217.672     0.929     0.000 .00000E+00 0.000E+00 0.000E+00 0.000E+00 0.000E+00 0.000E+00
BIGSUB   0        0    0
BIGSUB   2        0 1992.14730E+01   797.231   232.163   375.170   212.478   121.238   172.355    33.708     0.000   583.300   133.147    29.245     3.580     0.001     0.001     2.859   380.212     1.155     0.000 .00000E+00 0.000E+00 0.000E+00 0.000E+00 0.000E+00 0.000E+00
BIGSUB   0        0    0
BIGSUB   3        0 1992.13769E+01   764.076   146.870   414.053   241.922   121.808   147.312    45.818   127.667   539.930   179.090    29.179     3.572     0.001     0.001     2.851   359.135     1.152     0.021 .00000E+00 0.000E+00 0.000E+00 0.000E+00 0.000E+00 0.000E+00
BIGSUB   0        0    0
BIGSUB   1        0    1.24803E+01   277.149     4.947     3.544     1.944   121.545    85.923    61.816     0.000   190.218   194.026    34.506     4.223     0.000     0.003     3.375   118.917     0.520     0.000 .00000E+00 0.000E+00 0.000E+00 0.000E+00 0.000E+00 0.000E+00
BIGSUB   0        0    0
BIGSUB   2        0    1.14730E+01   295.863    22.841     2.994     1.626   121.238    54.350    33.656     0.000   173.793   120.421    30.202     3.696     0.000     0.001     2.942   125.569     0.292     0.000 .00000E+00 0.000E+00 0.000E+00 0.000E+00 0.000E+00 0.000E+00
BIGSUB   0        0    0
BIGSUB   3        0    1.13769E+01   292.921    24.246     3.334     1.857   121.809    58.702    49.141    22.602   213.122   169.292    32.263     3.948     0.000     0.001     3.145   140.751     0.366     0.005 .00000E+00 0.000E+00 0.000E+00 0.000E+00 0.000E+00 0.000E+00
BIGSUB   0        0    0
BIGSUB   1        0    2.24803E+01   325.539     9.100     3.429     1.914   121.544    87.139   107.661     0.000   256.438   415.215     2.516     0.308     0.000     0.003     0.267   126.792     0.306     0.000 .00000E+00 0.000E+00 0.000E+00 0.000E+00 0.000E+00 0.000E+00
BIGSUB   0        0    0
BIGSUB   2        0    2.14730E+01   342.417    52.656     2.896     1.597   121.238    61.848    58.155     0.000   228.902   219.218     7.195     0.881     0.000     0.001     0.729   150.062     0.228     0.000 .00000E+00 0.000E+00 0.000E+00 0.000E+00 0.000E+00 0.000E+00
BIGSUB   0        0    0
BIGSUB   3        0    2.13769E+01   339.845    50.674     3.276     1.858   121.809    70.590    87.590    39.650   302.855   366.150     3.868     0.474     0.000     0.001     0.404   174.611     0.279     0.014 .00000E+00 0.000E+00 0.000E+00 0.000E+00 0.000E+00 0.000E+00
BIGSUB   0        0    0
BIGSUB   1        0    3.24803E+01   185.578    12.340     8.629     4.705   121.522    65.191    26.520     0.000   162.585    65.873     0.162     0.020     0.000     0.000     0.018    97.065     0.162     0.000 .00000E+00 0.000E+00 0.000E+00 0.000E+00 0.000E+00 0.000E+00
BIGSUB   0        0    0
BIGSUB   2        0    3.14730E+01   203.454    83.282     7.320     3.872   121.238    54.366    18.769     0.000   182.764    56.672     0.226     0.028     0.000     0.000     0.030   132.208     0.157     0.000 .00000E+00 0.000E+00 0.000E+00 0.000E+00 0.000E+00 0.000E+00
BIGSUB   0        0    0
BIGSUB   3        0    3.13769E+01   200.528    68.768     7.896     4.258   124.428    55.831    27.982    57.073   229.707    96.257     0.035     0.005     0.000     0.000     0.009   143.001     0.168     0.016 .00000E+00 0.000E+00 0.000E+00 0.000E+00 0.000E+00 0.000E+00
BIGSUB   0        0    0
BIGSUB   1        0    4.24803E+01    99.896     6.991    17.676    14.922   117.572    37.061     5.866     0.000   105.473    10.636     0.027     0.003     0.000     0.000     0.003    54.501     0.081     0.000 .00000E+00 0.000E+00 0.000E+00 0.000E+00 0.000E+00 0.000E+00
BIGSUB   0        0    0
BIGSUB   2        0    4.14730E+01   118.463   124.210    12.749    10.765   121.012    56.684    26.737     0.000   201.467    84.401     0.163     0.020     0.000     0.000     0.021   137.336     0.136     0.000 .00000E+00 0.000E+00 0.000E+00 0.000E+00 0.000E+00 0.000E+00
BIGSUB   0        0    0
BIGSUB   3        0    4.13769E+01   115.344    45.622    24.579    22.970   120.830    30.158    11.386    51.734   150.613    34.372     0.005     0.001     0.000     0.000     0.001    85.593     0.093     0.010 .00000E+00 0.000E+00 0.000E+00 0.000E+00 0.000E+00 0.000E+00
BIGSUB   0        0    0
BIGSUB   1        0    5.24803E+01    25.732     1.755    46.619    32.195   108.293     0.100     0.014     0.000    49.373     0.040     0.000     0.000     0.000     0.000     0.000     3.524     0.000     0.000 .00000E+00 0.000E+00 0.000E+00 0.000E+00 0.000E+00 0.000E+00
BIGSUB   0        0    0
BIGSUB   2        0    5.14730E+01    42.061    79.040    18.251    13.993   122.256    27.158     4.999     0.000   112.962    17.727     0.014     0.002     0.000     0.000     0.002    65.243     0.062     0.000 .00000E+00 0.000E+00 0.000E+00 0.000E+00 0.000E+00 0.000E+00
BIGSUB   0        0    0
BIGSUB   3        0    5.13769E+01    39.086    20.119    39.524    33.493   113.293     4.733     0.108    38.207    58.773     0.279     0.000     0.000     0.000     0.000     0.000    18.519     0.018     0.004 .00000E+00 0.000E+00 0.000E+00 0.000E+00 0.000E+00 0.000E+00
BIGSUB   0        0    0
BIGSUB   1        0    6.24803E+01     9.177     2.181    64.278    23.105    95.173     0.000     0.000     0.000    37.746     0.000     0.000     0.000     0.000     0.000     0.000     0.533     0.000     0.000 .00000E+00 0.000E+00 0.000E+00 0.000E+00 0.000E+00 0.000E+00
BIGSUB   0        0    0
BIGSUB   2        0    6.14730E+01    21.480    17.635    54.902    36.674   104.809     1.176     0.000     0.000    43.621     0.000     0.000     0.000     0.000     0.000     0.000     4.588     0.005     0.000 .00000E+00 0.000E+00 0.000E+00 0.000E+00 0.000E+00 0.000E+00
BIGSUB   0        0    0
BIGSUB   3        0    6.13769E+01    19.135    11.525    60.791    31.457   100.216     0.060     0.000    19.457    23.478     0.000     0.000     0.000     0.000     0.000     0.000     2.423     0.001     0.001 .00000E+00 0.000E+00 0.000E+00 0.000E+00 0.000E+00 0.000E+00
BIGSUB   0        0    0
BIGSUB   1        0    7.24803E+01     9.014     1.541    68.245    19.404    86.043     0.000     0.000     0.000    30.350     0.000     0.000     0.000     0.000     0.000     0.000     0.261     0.000     0.000 .00000E+00 0.000E+00 0.000E+00 0.000E+00 0.000E+00 0.000E+00
BIGSUB   0        0    0
BIGSUB   2        0    7.14730E+01    21.374    13.418    63.353    29.838    95.272     0.001     0.000     0.000    35.289     0.000     0.000     0.000     0.000     0.000     0.000     1.931     0.001     0.000 .00000E+00 0.000E+00 0.000E+00 0.000E+00 0.000E+00 0.000E+00
BIGSUB   0        0    0
BIGSUB   3        0    7.13769E+01    19.028     9.322    64.583    27.799    91.523     0.118     0.002     7.017    10.123     0.002     0.000     0.000     0.000     0.000     0.000     1.802     0.001     0.000 .00000E+00 0.000E+00 0.000E+00 0.000E+00 0.000E+00 0.000E+00
BIGSUB   0        0    0
BIGSUB   1        0    8.24803E+01    12.327     1.808    54.697    16.722    82.063     0.000     0.000     0.000    23.583     0.000     0.000     0.000     0.000     0.000     0.000     0.858     0.001     0.000 .00000E+00 0.000E+00 0.000E+00 0.000E+00 0.000E+00 0.000E+00
BIGSUB   0        0    0
BIGSUB   2        0    8.14730E+01    27.230    16.538    50.734    26.803    92.950     0.020     0.000     0.000    29.365     0.000     0.000     0.000     0.000     0.000     0.000     3.530     0.001     0.000 .00000E+00 0.000E+00 0.000E+00 0.000E+00 0.000E+00 0.000E+00
BIGSUB   0        0    0
BIGSUB   3        0    8.13769E+01    24.457    12.161    51.761    25.321    89.022     0.356     0.082     0.531     5.229     0.142     0.000     0.000     0.000     0.000     0.000     3.629     0.002     0.000 .00000E+00 0.000E+00 0.000E+00 0.000E+00 0.000E+00 0.000E+00
BIGSUB   0        0    0
BIGSUB   1        0    9.24803E+01    26.525     1.317    38.097    17.514    88.308     0.000     0.000     0.000    19.861     0.000     0.000     0.000     0.000     0.000     0.000     3.422     0.003     0.000 .00000E+00 0.000E+00 0.000E+00 0.000E+00 0.000E+00 0.000E+00
BIGSUB   0        0    0
BIGSUB   2        0    9.14730E+01    43.538    14.591    35.250    22.637   104.900     0.044     0.004     0.000    28.060     0.002     0.000     0.000     0.000     0.000     0.000     9.143     0.002     0.000 .00000E+00 0.000E+00 0.000E+00 0.000E+00 0.000E+00 0.000E+00
BIGSUB   0        0    0
BIGSUB   3        0    9.13769E+01    40.560     8.691    36.004    21.690    99.910     0.564     0.419     0.257    10.845     0.636     0.000     0.000     0.000     0.000     0.000     9.450     0.003     0.000 .00000E+00 0.000E+00 0.000E+00 0.000E+00 0.000E+00 0.000E+00
BIGSUB   0        0    0
BIGSUB   1        0   10.24803E+01   119.909     6.202    29.277    25.485   118.483    17.189     4.495     0.000    58.997    14.589     0.023     0.003     0.000     0.000     0.002    41.751     0.105     0.000 .00000E+00 0.000E+00 0.000E+00 0.000E+00 0.000E+00 0.000E+00
BIGSUB   0        0    0
BIGSUB   2        0   10.14730E+01   138.463    47.881     9.492     6.715   121.238    37.271     2.937     0.000    83.305    12.111     0.008     0.001     0.000     0.000     0.001    65.038     0.241     0.000 .00000E+00 0.000E+00 0.000E+00 0.000E+00 0.000E+00 0.000E+00
BIGSUB   0        0    0
BIGSUB   3        0   10.13769E+01   135.364    34.577    19.993    17.817   121.585    20.272     3.994     1.189    74.393    15.374     0.002     0.000     0.000     0.000     0.000    68.637     0.173     0.000 .00000E+00 0.000E+00 0.000E+00 0.000E+00 0.000E+00 0.000E+00
BIGSUB   0        0    0
BIGSUB   1        0   11.24803E+01   203.517     4.340    13.548    11.636   121.541    62.652    20.702     0.000   124.109    76.036     0.108     0.013     0.000     0.000     0.011    89.826     0.256     0.000 .00000E+00 0.000E+00 0.000E+00 0.000E+00 0.000E+00 0.000E+00
BIGSUB   0        0    0
BIGSUB   2        0   11.14730E+01   220.838    24.752     4.783     2.538   121.238    38.869     6.326     0.000   116.174    26.710     0.014     0.002     0.000     0.000     0.002    92.423     0.173     0.000 .00000E+00 0.000E+00 0.000E+00 0.000E+00 0.000E+00 0.000E+00
BIGSUB   0        0    0
BIGSUB   3        0   11.13769E+01   218.038    26.852     5.186     2.809   121.808    42.649     9.411    13.792   129.178    34.692     0.005     0.001     0.000     0.000     0.001   105.345     0.249     0.002 .00000E+00 0.000E+00 0.000E+00 0.000E+00 0.000E+00 0.000E+00
BIGSUB   0        0    0
BIGSUB   1        0   12.24803E+01   241.248     6.720     2.148     1.264   121.543    86.698    32.282     0.000   178.771    90.254     0.190     0.023     0.000     0.000     0.016   123.574     0.228     0.000 .00000E+00 0.000E+00 0.000E+00 0.000E+00 0.000E+00 0.000E+00
BIGSUB   0        0    0
BIGSUB   2        0   12.14730E+01   260.579    13.932     1.764     1.001   121.238    54.811    19.622     0.000   170.932    89.406     0.032     0.004     0.000     0.000     0.004   128.208     0.186     0.000 .00000E+00 0.000E+00 0.000E+00 0.000E+00 0.000E+00 0.000E+00
BIGSUB   0        0    0
BIGSUB   3        0   12.13769E+01   257.493    13.131     2.065     1.208   121.809    58.540    26.623    29.909   200.244    94.086     0.012     0.002     0.000     0.000     0.002   142.769     0.238     0.006 .00000E+00 0.000E+00 0.000E+00 0.000E+00 0.000E+00 0.000E+00
BIGSUB   0        0    0
BIGSUB   1        0 1993.24803E+01  1535.610    59.242   350.188   170.809   121.543   441.954   259.357     0.000  1237.504   866.668    37.532     4.593     0.001     0.006     3.693   661.023     1.662     0.000 .00000E+00 0.000E+00 0.000E+00 0.000E+00 0.000E+00 0.000E+00
BIGSUB   0        0    0
BIGSUB   2        0 1993.14730E+01  1735.763   510.776   264.487   158.061   121.238   386.598   171.206     0.000  1406.633   626.668    37.855     4.633     0.000     0.002     3.731   915.279     1.482     0.000 .00000E+00 0.000E+00 0.000E+00 0.000E+00 0.000E+00 0.000E+00
BIGSUB   0        0    0
BIGSUB   3        0 1993.13769E+01  1701.798   325.687   318.993   192.536   121.809   342.573   216.737   281.418  1408.561   811.283    36.189     4.430     0.000     0.002     3.563   896.530     1.591     0.059 .00000E+00 0.000E+00 0.000E+00 0.000E+00 0.000E+00 0.000E+00
BIGSUB   0        0    0
BIGSUB   1        0    1.24803E+01   301.987     7.117     4.657     2.528   121.545    98.436    58.973     0.000   233.475   180.742    26.262     3.213     0.000     0.002     2.556   138.455     0.168     0.000 .00000E+00 0.000E+00 0.000E+00 0.000E+00 0.000E+00 0.000E+00
BIGSUB   0        0    0
BIGSUB   2        0    1.14730E+01   320.763    32.574     3.956     2.128   121.238    65.986    42.447     0.000   228.184   160.787    27.651     3.383     0.000     0.001     2.690   156.092     0.173     0.000 .00000E+00 0.000E+00 0.000E+00 0.000E+00 0.000E+00 0.000E+00
BIGSUB   0        0    0
BIGSUB   3        0    1.13769E+01   317.846    32.695     4.358     2.399   121.809    71.190    54.176    44.184   274.163   186.930    27.915     3.416     0.000     0.001     2.721   174.449     0.205     0.009 .00000E+00 0.000E+00 0.000E+00 0.000E+00 0.000E+00 0.000E+00
BIGSUB   0        0    0
BIGSUB   1        0    2.24803E+01   392.297    13.692     2.813     1.609   121.544   115.175   107.154     0.000   319.908   279.410     2.960     0.362     0.000     0.002     0.302   166.953     0.133     0.000 .00000E+00 0.000E+00 0.000E+00 0.000E+00 0.000E+00 0.000E+00
BIGSUB   0        0    0
BIGSUB   2        0    2.14730E+01   409.933    69.138     2.305     1.304   121.238    76.367    72.155     0.000   289.085   244.640     2.648     0.324     0.000     0.000     0.282   183.057     0.149     0.000 .00000E+00 0.000E+00 0.000E+00 0.000E+00 0.000E+00 0.000E+00
BIGSUB   0        0    0
BIGSUB   3        0    2.13769E+01   407.320    66.639     2.690     1.568   121.809    88.043   121.804    53.669   393.623   357.135     2.124     0.260     0.000     0.001     0.227   216.482     0.173     0.011 .00000E+00 0.000E+00 0.000E+00 0.000E+00 0.000E+00 0.000E+00
BIGSUB   0        0    0
BIGSUB   1        0    3.24803E+01   172.917    10.749    12.697     6.740   121.510    66.608    15.008     0.000   176.959    32.847     0.101     0.012     0.000     0.000     0.010    98.007     0.071     0.000 .00000E+00 0.000E+00 0.000E+00 0.000E+00 0.000E+00 0.000E+00
BIGSUB   0        0    0
BIGSUB   2        0    3.14730E+01   190.333    99.186    11.040     5.731   121.238    62.346    28.701     0.000   224.984   123.548     0.074     0.009     0.000     0.000     0.010   150.466     0.108     0.000 .00000E+00 0.000E+00 0.000E+00 0.000E+00 0.000E+00 0.000E+00
BIGSUB   0        0    0
BIGSUB   3        0    3.13769E+01   187.500    59.218    12.535     7.086   120.837    58.464    24.259    70.241   246.003    86.294     0.017     0.003     0.000     0.000     0.003   149.131     0.103     0.012 .00000E+00 0.000E+00 0.000E+00 0.000E+00 0.000E+00 0.000E+00
BIGSUB   0        0    0
BIGSUB   1        0    4.24803E+01   134.503     6.710    23.791    19.731   117.703    47.500     8.481     0.000   147.438    25.770     0.052     0.006     0.000     0.000     0.005    72.430     0.055     0.000 .00000E+00 0.000E+00 0.000E+00 0.000E+00 0.000E+00 0.000E+00
BIGSUB   0        0    0
BIGSUB   2        0    4.14730E+01   152.254   182.078    15.928    12.546   120.882    73.913    56.462     0.000   283.584   214.168     0.040     0.006     0.000     0.000     0.005   176.913     0.112     0.000 .00000E+00 0.000E+00 0.000E+00 0.000E+00 0.000E+00 0.000E+00
BIGSUB   0        0    0
BIGSUB   3        0    4.13769E+01   149.277    52.989    32.806    29.870   119.786    35.569    15.508    61.088   183.748    57.021     0.006     0.001     0.000     0.000     0.001   104.624     0.072     0.007 .00000E+00 0.000E+00 0.000E+00 0.000E+00 0.000E+00 0.000E+00
BIGSUB   0        0    0
BIGSUB   1        0    5.24803E+01    24.288     0.343    75.479    39.954    99.860     0.133     0.001     0.000    68.882     0.000     0.000     0.000     0.000     0.000     0.000     3.711     0.000     0.000 .00000E+00 0.000E+00 0.000E+00 0.000E+00 0.000E+00 0.000E+00
BIGSUB   0        0    0
BIGSUB   2        0    5.14730E+01    37.063    90.241    43.844    31.698   110.856    29.816    15.741     0.000   150.300    55.122     0.007     0.001     0.000     0.000     0.001    77.827     0.044     0.000 .00000E+00 0.000E+00 0.000E+00 0.000E+00 0.000E+00 0.000E+00
BIGSUB   0        0    0
BIGSUB   3        0    5.13769E+01    34.730    13.531    65.315    39.654   102.790     5.295     0.381    45.710    70.096     1.298     0.000     0.000     0.000     0.000     0.000    21.489     0.014     0.003 .00000E+00 0.000E+00 0.000E+00 0.000E+00 0.000E+00 0.000E+00
BIGSUB   0        0    0
BIGSUB   1        0    6.24803E+01     9.227     1.618    72.542    21.271    89.012     0.000     0.000     0.000    52.629     0.000     0.000     0.000     0.000     0.000     0.000     0.362     0.000     0.000 .00000E+00 0.000E+00 0.000E+00 0.000E+00 0.000E+00 0.000E+00
BIGSUB   0        0    0
BIGSUB   2        0    6.14730E+01    20.532    13.212    67.176    31.446    98.543     0.000     0.000     0.000    53.426     0.000     0.000     0.000     0.000     0.000     0.000     2.329     0.001     0.000 .00000E+00 0.000E+00 0.000E+00 0.000E+00 0.000E+00 0.000E+00
BIGSUB   0        0    0
BIGSUB   3        0    6.13769E+01    18.398     9.589    68.493    27.211    93.749     0.041     0.000    23.405    27.617     0.000     0.000     0.000     0.000     0.000     0.000     2.157     0.001     0.001 .00000E+00 0.000E+00 0.000E+00 0.000E+00 0.000E+00 0.000E+00
BIGSUB   0        0    0
BIGSUB   1        0    7.24803E+01     5.732     1.119    71.866    15.261    80.964     0.000     0.000     0.000    42.140     0.000     0.000     0.000     0.000     0.000     0.000     0.097     0.000     0.000 .00000E+00 0.000E+00 0.000E+00 0.000E+00 0.000E+00 0.000E+00
BIGSUB   0        0    0
BIGSUB   2        0    7.14730E+01    17.409    10.124    66.718    26.569    89.497     0.000     0.000     0.000    43.989     0.000     0.000     0.000     0.000     0.000     0.000     0.864     0.001     0.000 .00000E+00 0.000E+00 0.000E+00 0.000E+00 0.000E+00 0.000E+00
BIGSUB   0        0    0
BIGSUB   3        0    7.13769E+01    15.065     6.856    67.951    24.152    85.775     0.128     0.003     8.394    11.044     0.005     0.000     0.000     0.000     0.000     0.000     0.979     0.001     0.000 .00000E+00 0.000E+00 0.000E+00 0.000E+00 0.000E+00 0.000E+00
BIGSUB   0        0    0
BIGSUB   1        0    8.24803E+01    14.337     1.188    63.376    16.158    79.200     0.000     0.000     0.000    32.977     0.000     0.000     0.000     0.000     0.000     0.000     1.300     0.002     0.000 .00000E+00 0.000E+00 0.000E+00 0.000E+00 0.000E+00 0.000E+00
BIGSUB   0        0    0
BIGSUB   2        0    8.14730E+01    27.634    11.791    58.779    24.173    89.912     0.023     0.001     0.000    36.993     0.000     0.000     0.000     0.000     0.000     0.000     3.777     0.002     0.000 .00000E+00 0.000E+00 0.000E+00 0.000E+00 0.000E+00 0.000E+00
BIGSUB   0        0    0
BIGSUB   3        0    8.13769E+01    25.083     7.683    59.908    22.779    86.071     0.423     0.185     0.500     6.149     0.314     0.000     0.000     0.000     0.000     0.000     4.202     0.003     0.000 .00000E+00 0.000E+00 0.000E+00 0.000E+00 0.000E+00 0.000E+00
BIGSUB   0        0    0
BIGSUB   1        0    9.24803E+01    38.800     0.573    46.468    20.849    88.951     0.000     3.246     0.000    31.723    19.602     0.019     0.002     0.001     0.000     0.002     5.588     0.003     0.000 .00000E+00 0.000E+00 0.000E+00 0.000E+00 0.000E+00 0.000E+00
BIGSUB   0        0    0
BIGSUB   2        0    9.14730E+01    53.703    13.481    42.550    25.013   104.517     0.055     2.868     0.000    38.612    26.969     0.001     0.000     0.000     0.000     0.000    11.489     0.002     0.000 .00000E+00 0.000E+00 0.000E+00 0.000E+00 0.000E+00 0.000E+00
BIGSUB   0        0    0
BIGSUB   3        0    9.13769E+01    51.062     6.728    43.382    24.031    99.560     0.682     4.046     0.312    17.225    20.555     0.002     0.000     0.000     0.000     0.000    11.950     0.003     0.000 .00000E+00 0.000E+00 0.000E+00 0.000E+00 0.000E+00 0.000E+00
BIGSUB   0        0    0
BIGSUB   1        0   10.24803E+01    50.889     3.181    40.191    25.948   102.928     0.191     0.830     0.000    29.285     1.618     0.004     0.001     0.000     0.000     0.000    10.900     0.006     0.000 .00000E+00 0.000E+00 0.000E+00 0.000E+00 0.000E+00 0.000E+00
BIGSUB   0        0    0
BIGSUB   2        0   10.14730E+01    66.419    28.767    33.442    27.619   118.276     1.218     0.659     0.000    42.622     2.202     0.000     0.000     0.000     0.000     0.000    23.249     0.037     0.000 .00000E+00 0.000E+00 0.000E+00 0.000E+00 0.000E+00 0.000E+00
BIGSUB   0        0    0
BIGSUB   3        0   10.13769E+01    63.682    21.176    35.763    28.345   113.259     0.956     1.388     0.508    25.180     4.135     0.000     0.000     0.000     0.000     0.000    22.572     0.029     0.000 .00000E+00 0.000E+00 0.000E+00 0.000E+00 0.000E+00 0.000E+00
BIGSUB   0        0    0
BIGSUB   1        0   11.24803E+01   105.846     3.137    20.582    16.203   121.543    17.625    14.174     0.000    64.068    46.704     0.072     0.009     0.001     0.000     0.007    36.477     0.096     0.000 .00000E+00 0.000E+00 0.000E+00 0.000E+00 0.000E+00 0.000E+00
BIGSUB   0        0    0
BIGSUB   2        0   11.14730E+01   121.607    29.450     7.534     4.767   122.407    27.640     7.918     0.000    80.668    36.145     0.003     0.000     0.000     0.000     0.000    57.891     0.166     0.000 .00000E+00 0.000E+00 0.000E+00 0.000E+00 0.000E+00 0.000E+00
BIGSUB   0        0    0
BIGSUB   3        0   11.13769E+01   118.924    22.844     8.020     5.096   125.882    24.705    11.522     3.414    73.004    53.282     0.005     0.001     0.000     0.000     0.001    57.498     0.172     0.000 .00000E+00 0.000E+00 0.000E+00 0.000E+00 0.000E+00 0.000E+00
BIGSUB   0        0    0
BIGSUB   1        0   12.24803E+01   168.998     1.084     8.244     6.424   121.544    56.217    24.678     0.000   117.055    54.547     0.119     0.015     0.000     0.000     0.011    78.116     0.215     0.000 .00000E+00 0.000E+00 0.000E+00 0.000E+00 0.000E+00 0.000E+00
BIGSUB   0        0    0
BIGSUB   2        0   12.14730E+01   188.179     7.201     4.229     2.230   121.238    38.614    14.088     0.000   117.528    61.732     0.004     0.001     0.000     0.000     0.000    87.236     0.191     0.000 .00000E+00 0.000E+00 0.000E+00 0.000E+00 0.000E+00 0.000E+00
BIGSUB   0        0    0
BIGSUB   3        0   12.13769E+01   185.021     7.776     4.549     2.444   121.809    44.686    20.740    15.223   132.986    68.705     0.005     0.001     0.000     0.000     0.001    96.343     0.240     0.002 .00000E+00 0.000E+00 0.000E+00 0.000E+00 0.000E+00 0.000E+00
BIGSUB   0        0    0
BIGSUB   1        0 1994.24803E+01  1419.822    50.510   442.706   192.677   121.544   401.885   232.547     0.000  1316.539   641.240    29.590     3.620     0.003     0.005     2.894   612.396     0.749     0.000 .00000E+00 0.000E+00 0.000E+00 0.000E+00 0.000E+00 0.000E+00
BIGSUB   0        0    0
BIGSUB   2        0 1994.14730E+01  1605.829   587.244   357.500   195.224   121.238   375.979   241.040     0.000  1589.974   925.313    30.428     3.725     0.001     0.002     2.988   931.190     0.984     0.000 .00000E+00 0.000E+00 0.000E+00 0.000E+00 0.000E+00 0.000E+00
BIGSUB   0        0    0
BIGSUB   3        0 1994.13769E+01  1573.906   307.725   405.768   214.637   121.809   330.181   254.011   326.648  1460.838   835.673    30.075     3.682     0.001     0.002     2.953   861.877     1.014     0.046 .00000E+00 0.000E+00 0.000E+00 0.000E+00 0.000E+00 0.000E+00
BIGSUB   0        0    0
BIGSUB   1        0    1.24803E+01   211.089     1.223    16.253    14.937   121.031    63.008    43.255     0.000   160.275   112.745    24.081     2.946     0.000     0.001     2.343    96.144     0.182     0.000 .00000E+00 0.000E+00 0.000E+00 0.000E+00 0.000E+00 0.000E+00
BIGSUB   0        0    0
BIGSUB   2        0    1.14730E+01   229.048    32.911     6.822     3.535   121.238    56.013    40.178     0.000   196.508   152.893    27.490     3.363     0.000     0.001     2.683   135.859     0.210     0.000 .00000E+00 0.000E+00 0.000E+00 0.000E+00 0.000E+00 0.000E+00
BIGSUB   0        0    0
BIGSUB   3        0    1.13769E+01   226.147    24.788     7.194     3.778   121.808    55.981    47.374    29.774   219.697   167.872    26.898     3.291     0.000     0.001     2.628   141.592     0.220     0.005 .00000E+00 0.000E+00 0.000E+00 0.000E+00 0.000E+00 0.000E+00
BIGSUB   0        0    0
BIGSUB   1        0    2.24803E+01   153.886     2.618    23.138    21.820   121.297    42.777    24.484     0.000   115.679   102.383     2.901     0.355     0.000     0.000     0.295    64.821     0.096     0.000 .00000E+00 0.000E+00 0.000E+00 0.000E+00 0.000E+00 0.000E+00
BIGSUB   0        0    0
BIGSUB   2        0    2.14730E+01   170.517    47.589     4.847     2.603   121.238    46.667    23.406     0.000   160.962   112.885     1.931     0.236     0.000     0.000     0.202   112.937     0.133     0.000 .00000E+00 0.000E+00 0.000E+00 0.000E+00 0.000E+00 0.000E+00
BIGSUB   0        0    0
BIGSUB   3        0    2.13769E+01   167.773    29.309     5.324     2.925   121.808    43.124    25.685    37.711   172.547   104.971     1.824     0.223     0.000     0.000     0.188   107.962     0.131     0.007 .00000E+00 0.000E+00 0.000E+00 0.000E+00 0.000E+00 0.000E+00
BIGSUB   0        0    0
BIGSUB   1        0    3.24803E+01   201.824     7.989    30.561    28.811   119.276    60.514    24.292     0.000   149.537    50.324     0.897     0.110     0.000     0.000     0.094    89.406     0.115     0.000 .00000E+00 0.000E+00 0.000E+00 0.000E+00 0.000E+00 0.000E+00
BIGSUB   0        0    0
BIGSUB   2        0    3.14730E+01   221.079    79.851     9.788     6.440   120.659    62.928    26.886     0.000   209.388    89.455     0.490     0.060     0.000     0.000     0.055   148.608     0.145     0.000 .00000E+00 0.000E+00 0.000E+00 0.000E+00 0.000E+00 0.000E+00
BIGSUB   0        0    0
BIGSUB   3        0    3.13769E+01   217.954    43.871    18.963    16.494   120.418    52.493    25.061    46.863   207.065    81.732     0.628     0.077     0.000     0.000     0.067   133.514     0.136     0.008 .00000E+00 0.000E+00 0.000E+00 0.000E+00 0.000E+00 0.000E+00
BIGSUB   0        0    0
BIGSUB   1        0    4.24803E+01    77.032     0.177    49.974    40.469   111.763    14.716     3.475     0.000    71.642    14.692     0.098     0.012     0.000     0.000     0.010    29.435     0.031     0.000 .00000E+00 0.000E+00 0.000E+00 0.000E+00 0.000E+00 0.000E+00
BIGSUB   0        0    0
BIGSUB   2        0    4.14730E+01    93.556    24.331    27.449    23.508   116.219    25.199     7.282     0.000   113.419    45.770     0.072     0.009     0.000     0.000     0.008    68.078     0.058     0.000 .00000E+00 0.000E+00 0.000E+00 0.000E+00 0.000E+00 0.000E+00
BIGSUB   0        0    0
BIGSUB   3        0    4.13769E+01    90.631     1.893    47.254    41.850   114.279    12.717     4.559    42.112    92.967    24.708     0.075     0.009     0.000     0.000     0.008    44.546     0.037     0.005 .00000E+00 0.000E+00 0.000E+00 0.000E+00 0.000E+00 0.000E+00
BIGSUB   0        0    0
BIGSUB   1        0    5.24803E+01    10.666     0.163    71.096    27.674    95.706     0.000     0.000     0.000    37.101     0.000     0.000     0.000     0.000     0.000     0.000     0.413     0.000     0.000 .00000E+00 0.000E+00 0.000E+00 0.000E+00 0.000E+00 0.000E+00
BIGSUB   0        0    0
BIGSUB   2        0    5.14730E+01    23.080     3.736    65.761    37.057   100.524     0.015     0.000     0.000    40.359     0.000     0.000     0.000     0.000     0.000     0.000     2.591     0.000     0.000 .00000E+00 0.000E+00 0.000E+00 0.000E+00 0.000E+00 0.000E+00
BIGSUB   0        0    0
BIGSUB   3        0    5.13769E+01    20.736     1.356    67.069    35.194    99.168     0.279     0.041    26.529    31.022     0.041     0.000     0.000     0.000     0.000     0.000     2.797     0.001     0.002 .00000E+00 0.000E+00 0.000E+00 0.000E+00 0.000E+00 0.000E+00
BIGSUB   0        0    0
BIGSUB   1        0    6.24803E+01     4.738     0.363    86.006    17.965    84.311     0.000     0.000     0.000    28.881     0.000     0.000     0.000     0.000     0.000     0.000     0.060     0.000     0.000 .00000E+00 0.000E+00 0.000E+00 0.000E+00 0.000E+00 0.000E+00
BIGSUB   0        0    0
BIGSUB   2        0    6.14730E+01    13.387     5.442    79.747    25.419    89.042     0.000     0.000     0.000    30.900     0.000     0.000     0.000     0.000     0.000     0.000     0.659     0.001     0.000 .00000E+00 0.000E+00 0.000E+00 0.000E+00 0.000E+00 0.000E+00
BIGSUB   0        0    0
BIGSUB   3        0    6.13769E+01    11.681     3.080    81.249    25.017    87.642     0.048     0.000    10.510    12.427     0.000     0.000     0.000     0.000     0.000     0.000     0.615     0.001     0.000 .00000E+00 0.000E+00 0.000E+00 0.000E+00 0.000E+00 0.000E+00
BIGSUB   0        0    0
BIGSUB   1        0    7.24803E+01     6.137     0.134    93.783    17.405    74.868     0.000     0.000     0.000    23.219     0.000     0.000     0.000     0.000     0.000     0.000     0.241     0.001     0.000 .00000E+00 0.000E+00 0.000E+00 0.000E+00 0.000E+00 0.000E+00
BIGSUB   0        0    0
BIGSUB   2        0    7.14730E+01    14.466     3.281    87.169    23.147    80.764     0.000     0.000     0.000    25.454     0.000     0.000     0.000     0.000     0.000     0.000     1.145     0.001     0.000 .00000E+00 0.000E+00 0.000E+00 0.000E+00 0.000E+00 0.000E+00
BIGSUB   0        0    0
BIGSUB   3        0    7.13769E+01    12.868     1.484    88.734    23.069    79.208     0.146     0.011     1.237     3.502     0.013     0.000     0.000     0.000     0.000     0.000     1.215     0.002     0.000 .00000E+00 0.000E+00 0.000E+00 0.000E+00 0.000E+00 0.000E+00
BIGSUB   0        0    0
BIGSUB   1        0    8.24803E+01     7.287     0.019    77.308    15.342    68.106     0.000     0.000     0.000    17.738     0.000     0.000     0.000     0.000     0.000     0.000     0.499     0.006     0.000 .00000E+00 0.000E+00 0.000E+00 0.000E+00 0.000E+00 0.000E+00
BIGSUB   0        0    0
BIGSUB   2        0    8.14730E+01    16.841     1.253    72.031    19.339    77.574     0.027     0.001     0.000    20.318     0.001     0.000     0.000     0.000     0.000     0.000     2.008     0.003     0.000 .00000E+00 0.000E+00 0.000E+00 0.000E+00 0.000E+00 0.000E+00
BIGSUB   0        0    0
BIGSUB   3        0    8.13769E+01    14.927     0.307    73.354    19.030    75.659     0.493     0.306     0.193     3.920     0.634     0.000     0.000     0.000     0.000     0.000     2.639     0.005     0.000 .00000E+00 0.000E+00 0.000E+00 0.000E+00 0.000E+00 0.000E+00
BIGSUB   0        0    0
BIGSUB   1        0    9.24803E+01    27.270     0.136    47.913    14.455    76.657     0.000     0.682     0.000    17.653     2.769     0.014     0.002     0.005     0.000     0.002     4.540     0.024     0.000 .00000E+00 0.000E+00 0.000E+00 0.000E+00 0.000E+00 0.000E+00
BIGSUB   0        0    0
BIGSUB   2        0    9.14730E+01    41.338     4.789    44.386    20.126    89.561     0.055     1.219     0.000    22.888     4.855     0.008     0.001     0.000     0.000     0.001     8.436     0.003     0.000 .00000E+00 0.000E+00 0.000E+00 0.000E+00 0.000E+00 0.000E+00
BIGSUB   0        0    0
BIGSUB   3        0    9.13769E+01    38.691     1.878    45.261    19.321    86.705     0.688     1.834     0.336    12.059     8.460     0.022     0.003     0.000     0.000     0.002     9.322     0.005     0.000 .00000E+00 0.000E+00 0.000E+00 0.000E+00 0.000E+00 0.000E+00
BIGSUB   0        0    0
BIGSUB   1        0   10.24803E+01    57.579     0.605    34.492    18.379   102.480     0.000     1.942     0.000    22.972     6.874     0.040     0.005     0.000     0.000     0.004    11.506     0.004     0.000 .00000E+00 0.000E+00 0.000E+00 0.000E+00 0.000E+00 0.000E+00
BIGSUB   0        0    0
BIGSUB   2        0   10.14730E+01    73.967    12.914    29.781    21.637   115.144     0.183     2.664     0.000    35.221    14.535     0.018     0.002     0.000     0.000     0.002    22.398     0.027     0.000 .00000E+00 0.000E+00 0.000E+00 0.000E+00 0.000E+00 0.000E+00
BIGSUB   0        0    0
BIGSUB   3        0   10.13769E+01    71.025     5.864    31.906    22.301   111.265     0.907     3.801     0.536    26.937    15.406     0.034     0.004     0.000     0.000     0.004    22.156     0.021     0.000 .00000E+00 0.000E+00 0.000E+00 0.000E+00 0.000E+00 0.000E+00
BIGSUB   0        0    0
BIGSUB   1        0   11.24803E+01   151.570     3.009    16.198    13.356   118.609    34.101    25.031     0.000    96.802    58.459     0.404     0.049     0.000     0.000     0.042    63.970     0.193     0.000 .00000E+00 0.000E+00 0.000E+00 0.000E+00 0.000E+00 0.000E+00
BIGSUB   0        0    0
BIGSUB   2        0   11.14730E+01   168.117    28.755     6.838     3.584   121.238    37.951    11.805     0.000   102.950    35.806     0.051     0.006     0.000     0.000     0.006    82.508     0.274     0.000 .00000E+00 0.000E+00 0.000E+00 0.000E+00 0.000E+00 0.000E+00
BIGSUB   0        0    0
BIGSUB   3        0   11.13769E+01   165.371    21.709    12.347     9.573   121.670    30.107    17.041     2.607   108.035    57.164     0.143     0.018     0.000     0.000     0.015    88.016     0.247     0.000 .00000E+00 0.000E+00 0.000E+00 0.000E+00 0.000E+00 0.000E+00
BIGSUB   0        0    0
BIGSUB   1        0   12.24803E+01   164.847     0.469    17.381    13.465   121.540    39.787    39.680     0.000   107.583   149.006     0.429     0.052     0.000     0.000     0.043    57.130     0.158     0.000 .00000E+00 0.000E+00 0.000E+00 0.000E+00 0.000E+00 0.000E+00
BIGSUB   0        0    0
BIGSUB   2        0   12.14730E+01   180.419     8.945     5.561     2.929   121.238    28.966    10.850     0.000    89.830    56.893     0.042     0.005     0.000     0.000     0.005    66.775     0.154     0.000 .00000E+00 0.000E+00 0.000E+00 0.000E+00 0.000E+00 0.000E+00
BIGSUB   0        0    0
[...]
BIGSUB   0        0    0
BIGSUB   1        0    5.24803E+01    10.456     0.553    76.881    29.055    95.078     0.000     0.007     0.000    32.853     0.000     0.000     0.000     0.000     0.000     0.000     0.840     0.000     0.000 .00000E+00 0.000E+00 0.000E+00 0.000E+00 0.000E+00 0.000E+00
BIGSUB   0        0    0
BIGSUB   2        0    5.14730E+01    19.997    12.086    64.020    32.441   102.790     4.257     0.002     0.000    42.098     0.000     0.000     0.000     0.000     0.000     0.000     8.611     0.014     0.000 .00000E+00 0.000E+00 0.000E+00 0.000E+00 0.000E+00 0.000E+00
BIGSUB   0        0    0
BIGSUB   3        0    5.13769E+01    18.189     4.811    72.665    34.488    99.411     0.000     0.002    18.776    22.735     0.000     0.000     0.000     0.000     0.000     0.000     2.548     0.001     0.001 .00000E+00 0.000E+00 0.000E+00 0.000E+00 0.000E+00 0.000E+00
BIGSUB   0        0    0
BIGSUB   1        0    6.24803E+01     3.692     1.093    85.634    17.295    83.313     0.000     0.000     0.000    24.249     0.000     0.000     0.000     0.000     0.000     0.000     0.002     0.000     0.000 .00000E+00 0.000E+00 0.000E+00 0.000E+00 0.000E+00 0.000E+00
BIGSUB   0        0    0
BIGSUB   2        0    6.14730E+01    10.303     7.533    79.025    23.648    90.118     0.000     0.000     0.000    27.760     0.000     0.000     0.000     0.000     0.000     0.000     0.558     0.001     0.000 .00000E+00 0.000E+00 0.000E+00 0.000E+00 0.000E+00 0.000E+00
BIGSUB   0        0    0
BIGSUB   3        0    6.13769E+01     9.021     6.158    80.540    22.498    87.408     0.000     0.000     5.500     6.931     0.000     0.000     0.000     0.000     0.000     0.000     0.350     0.000     0.000 .00000E+00 0.000E+00 0.000E+00 0.000E+00 0.000E+00 0.000E+00
BIGSUB   0        0    0
BIGSUB   1        0    7.24803E+01     4.026     0.331    96.100    14.143    75.244     0.000     0.000     0.000    19.085     0.000     0.000     0.000     0.000     0.000     0.000     0.066     0.000     0.000 .00000E+00 0.000E+00 0.000E+00 0.000E+00 0.000E+00 0.000E+00
BIGSUB   0        0    0
BIGSUB   2        0    7.14730E+01    10.947     4.946    89.314    20.439    81.591     0.000     0.000     0.000    22.431     0.000     0.000     0.000     0.000     0.000     0.000     0.426     0.001     0.000 .00000E+00 0.000E+00 0.000E+00 0.000E+00 0.000E+00 0.000E+00
BIGSUB   0        0    0
BIGSUB   3        0    7.13769E+01     9.563     2.769    90.909    19.493    79.234     0.000     0.000     0.073     1.263     0.000     0.000     0.000     0.000     0.000     0.000     0.337     0.001     0.000 .00000E+00 0.000E+00 0.000E+00 0.000E+00 0.000E+00 0.000E+00
BIGSUB   0        0    0
BIGSUB   1        0    8.24803E+01    19.709     3.257    43.328    16.846    76.873     0.000     0.000     0.000    16.171     0.000     0.000     0.000     0.000     0.000     0.000     2.016     0.005     0.000 .00000E+00 0.000E+00 0.000E+00 0.000E+00 0.000E+00 0.000E+00
BIGSUB   0        0    0
BIGSUB   2        0    8.14730E+01    36.565    18.785    35.524    20.738    92.294     0.026     0.000     0.000    22.088     0.000     0.000     0.000     0.000     0.000     0.000     5.463     0.003     0.000 .00000E+00 0.000E+00 0.000E+00 0.000E+00 0.000E+00 0.000E+00
BIGSUB   0        0    0
BIGSUB   3        0    8.13769E+01    33.475    13.638    39.859    21.603    85.727     0.000     0.000     0.005     6.368     0.000     0.000     0.000     0.000     0.000     0.000     5.727     0.005     0.000 .00000E+00 0.000E+00 0.000E+00 0.000E+00 0.000E+00 0.000E+00
BIGSUB   0        0    0
BIGSUB   1        0    9.24803E+01    36.718     1.354    57.590    15.354    89.992     0.000     2.539     0.000    19.406    14.731     0.023     0.003     0.001     0.000     0.003     6.698     0.003     0.000 .00000E+00 0.000E+00 0.000E+00 0.000E+00 0.000E+00 0.000E+00
BIGSUB   0        0    0
BIGSUB   2        0    9.14730E+01    47.628    16.186    52.352    20.792   106.410     0.051     1.735     0.000    25.053     9.698     0.006     0.001     0.000     0.000     0.001    11.287     0.002     0.000 .00000E+00 0.000E+00 0.000E+00 0.000E+00 0.000E+00 0.000E+00
BIGSUB   0        0    0
BIGSUB   3        0    9.13769E+01    45.631    10.610    53.344    18.081   100.561     0.000     2.229     0.000    13.935    16.079     0.006     0.001     0.000     0.000     0.001    11.249     0.002     0.000 .00000E+00 0.000E+00 0.000E+00 0.000E+00 0.000E+00 0.000E+00
BIGSUB   0        0    0
BIGSUB   1        0   10.24803E+01    65.130     0.703    46.293    26.121   108.986     0.343     5.724     0.000    25.172    19.840     0.032     0.004     0.001     0.000     0.004    11.673     0.009     0.000 .00000E+00 0.000E+00 0.000E+00 0.000E+00 0.000E+00 0.000E+00
BIGSUB   0        0    0
BIGSUB   2        0   10.14730E+01    78.246    10.456    41.163    32.073   117.582     0.313     4.954     0.000    34.785    26.765     0.014     0.002     0.001     0.000     0.002    20.584     0.028     0.000 .00000E+00 0.000E+00 0.000E+00 0.000E+00 0.000E+00 0.000E+00
BIGSUB   0        0    0
BIGSUB   3        0   10.13769E+01    75.950     4.663    42.535    30.827   113.863     0.323     5.977     0.026    26.033    25.507     0.012     0.002     0.001     0.000     0.002    19.679     0.023     0.000 .00000E+00 0.000E+00 0.000E+00 0.000E+00 0.000E+00 0.000E+00
BIGSUB   0        0    0
BIGSUB   1        0   11.24803E+01   151.464     1.081    25.727    21.642   121.300    30.376    31.400     0.000    93.792    90.633     0.177     0.022     0.002     0.000     0.018    55.634     0.180     0.000 .00000E+00 0.000E+00 0.000E+00 0.000E+00 0.000E+00 0.000E+00
BIGSUB   0        0    0
BIGSUB   2        0   11.14730E+01   167.307    26.399     8.248     4.283   121.238    38.141    25.769     0.000   120.587   120.219     0.047     0.006     0.000     0.000     0.006    86.608     0.271     0.000 .00000E+00 0.000E+00 0.000E+00 0.000E+00 0.000E+00 0.000E+00
BIGSUB   0        0    0
BIGSUB   3        0   11.13769E+01   164.669    17.418     8.714     4.591   126.075    38.769    30.768     2.812   113.377   122.267     0.029     0.004     0.000     0.000     0.004    79.479     0.309     0.000 .00000E+00 0.000E+00 0.000E+00 0.000E+00 0.000E+00 0.000E+00
BIGSUB   0        0    0
BIGSUB   1        0   12.24803E+01   245.546     0.181    10.602     9.645   121.541    68.976    65.180     0.000   178.493   260.487     0.373     0.046     0.001     0.001     0.035   102.085     0.282     0.000 .00000E+00 0.000E+00 0.000E+00 0.000E+00 0.000E+00 0.000E+00
BIGSUB   0        0    0
BIGSUB   2        0   12.14730E+01   263.648     4.535     2.616     1.437   121.238    50.766    50.080     0.000   187.781   226.044     0.032     0.004     0.000     0.000     0.003   124.832     0.256     0.000 .00000E+00 0.000E+00 0.000E+00 0.000E+00 0.000E+00 0.000E+00
BIGSUB   0        0    0
BIGSUB   3        0   12.13769E+01   260.781     2.451     2.961     1.670   121.808    52.960    60.981    20.123   215.521   241.998     0.032     0.004     0.000     0.000     0.003   133.833     0.287     0.004 .00000E+00 0.000E+00 0.000E+00 0.000E+00 0.000E+00 0.000E+00
BIGSUB   0        0    0
BIGSUB   1        0 1997.24803E+01  1165.679    30.035   533.210   210.527   121.541   279.123   239.277     0.000   923.119   807.817    28.916     3.536     0.005     0.004     2.842   445.372     0.934     0.000 .00000E+00 0.000E+00 0.000E+00 0.000E+00 0.000E+00 0.000E+00
BIGSUB   0        0    0
BIGSUB   2        0 1997.14730E+01  1328.634   351.606   416.973   183.804   121.238   273.072   191.502     0.000  1120.998   860.013    29.834     3.648     0.001     0.001     2.941   686.727     1.166     0.000 .00000E+00 0.000E+00 0.000E+00 0.000E+00 0.000E+00 0.000E+00
BIGSUB   0        0    0
BIGSUB   3        0 1997.13769E+01  1300.424   212.082   464.522   205.620   121.808   244.072   227.094   193.406  1074.817   932.949    29.526     3.611     0.002     0.001     2.911   643.772     1.184     0.032 .00000E+00 0.000E+00 0.000E+00 0.000E+00 0.000E+00 0.000E+00
BIGSUB   0        0    0
BIGSUB   1        0    1.24803E+01   319.769     1.343    11.853    10.611   120.694    93.756    82.542     0.000   239.831   236.044    27.241     3.331     0.000     0.002     2.665   134.649     0.227     0.000 .00000E+00 0.000E+00 0.000E+00 0.000E+00 0.000E+00 0.000E+00
BIGSUB   0        0    0
BIGSUB   2        0    1.14730E+01   338.563    35.948     4.518     2.396   121.238    78.978    94.791     0.000   302.214   514.526    29.603     3.619     0.000     0.002     2.907   186.172     0.247     0.000 .00000E+00 0.000E+00 0.000E+00 0.000E+00 0.000E+00 0.000E+00
BIGSUB   0        0    0
BIGSUB   3        0    1.13769E+01   335.664    20.921     4.892     2.647   121.809    74.430    91.933    39.339   315.912   334.180    29.215     3.572     0.000     0.002     2.867   183.604     0.248     0.010 .00000E+00 0.000E+00 0.000E+00 0.000E+00 0.000E+00 0.000E+00
BIGSUB   0        0    0
BIGSUB   1        0    2.24803E+01   302.525     1.472    20.044    18.662   120.932    80.106    85.658     0.000   235.125   299.548     1.091     0.134     0.000     0.001     0.122   116.300     0.130     0.000 .00000E+00 0.000E+00 0.000E+00 0.000E+00 0.000E+00 0.000E+00
BIGSUB   0        0    0
BIGSUB   2        0    2.14730E+01   318.802    33.690     5.379     2.936   121.203    71.695    92.378     0.000   291.824   487.277     0.055     0.007     0.000     0.000     0.019   170.132     0.152     0.000 .00000E+00 0.000E+00 0.000E+00 0.000E+00 0.000E+00 0.000E+00
BIGSUB   0        0    0
BIGSUB   3        0    2.13769E+01   316.314    11.547    14.364    12.896   121.232    62.147    87.463    49.883   295.201   443.399     0.117     0.014     0.000     0.000     0.026   156.438     0.147     0.012 .00000E+00 0.000E+00 0.000E+00 0.000E+00 0.000E+00 0.000E+00
BIGSUB   0        0    0
BIGSUB   1        0    3.24803E+01   192.531     0.186    36.739    32.452   121.327    52.585    26.371     0.000   157.844    71.967     0.149     0.019     0.000     0.000     0.015    84.109     0.079     0.000 .00000E+00 0.000E+00 0.000E+00 0.000E+00 0.000E+00 0.000E+00
BIGSUB   0        0    0
BIGSUB   2        0    3.14730E+01   209.838    19.230    17.806    13.371   121.042    51.485    29.999     0.000   201.313   126.579     0.010     0.001     0.000     0.000     0.001   129.401     0.098     0.000 .00000E+00 0.000E+00 0.000E+00 0.000E+00 0.000E+00 0.000E+00
BIGSUB   0        0    0
BIGSUB   3        0    3.13769E+01   207.027     2.813    34.064    29.595   121.609    40.154    28.785    57.219   199.643   107.677     0.009     0.001     0.000     0.000     0.001   111.682     0.091     0.010 .00000E+00 0.000E+00 0.000E+00 0.000E+00 0.000E+00 0.000E+00
BIGSUB   0        0    0
BIGSUB   1        0    4.24803E+01    76.466     0.000    42.699    31.667   116.608    13.948    11.249     0.000    86.259    37.768     0.047     0.006     0.000     0.000     0.005    25.266     0.022     0.000 .00000E+00 0.000E+00 0.000E+00 0.000E+00 0.000E+00 0.000E+00
BIGSUB   0        0    0
BIGSUB   2        0    4.14730E+01    92.629     0.948    39.467    33.654   119.162    11.924    12.714     0.000    94.472    59.602     0.002     0.000     0.000     0.000     0.000    37.373     0.024     0.000 .00000E+00 0.000E+00 0.000E+00 0.000E+00 0.000E+00 0.000E+00
BIGSUB   0        0    0
BIGSUB   3        0    4.13769E+01    89.809     0.068    40.288    33.762   118.779    11.154    12.495    45.790    96.662    64.646     0.003     0.000     0.000     0.000     0.000    36.364     0.027     0.005 .00000E+00 0.000E+00 0.000E+00 0.000E+00 0.000E+00 0.000E+00
BIGSUB   0        0    0
BIGSUB   1        0    5.24803E+01     4.342     0.044    98.581    30.745    92.083     0.000     0.067     0.000    47.312     0.000     0.003     0.000     0.000     0.000     0.000     1.293     0.000     0.000 .00000E+00 0.000E+00 0.000E+00 0.000E+00 0.000E+00 0.000E+00
BIGSUB   0        0    0
BIGSUB   2        0    5.14730E+01     9.972     1.166    91.493    35.454    94.447     0.005     0.008     0.000    43.474     0.000     0.000     0.000     0.000     0.000     0.000     2.328     0.000     0.000 .00000E+00 0.000E+00 0.000E+00 0.000E+00 0.000E+00 0.000E+00
BIGSUB   0        0    0
BIGSUB   3        0    5.13769E+01     8.906     0.344    93.199    35.216    93.978     0.000     0.008    26.845    30.887     0.000     0.000     0.000     0.000     0.000     0.000     2.187     0.000     0.001 .00000E+00 0.000E+00 0.000E+00 0.000E+00 0.000E+00 0.000E+00
BIGSUB   0        0    0
BIGSUB   1        0    6.24803E+01     4.925     0.154    94.331    18.243    80.499     0.000     0.000     0.000    36.013     0.000     0.000     0.000     0.000     0.000     0.000     0.300     0.000     0.000 .00000E+00 0.000E+00 0.000E+00 0.000E+00 0.000E+00 0.000E+00
BIGSUB   0        0    0
BIGSUB   2        0    6.14730E+01    11.326     3.014    87.488    21.878    84.349     0.000     0.000     0.000    33.028     0.000     0.000     0.000     0.000     0.000     0.000     1.009     0.001     0.000 .00000E+00 0.000E+00 0.000E+00 0.000E+00 0.000E+00 0.000E+00
BIGSUB   0        0    0
BIGSUB   3        0    6.13769E+01    10.049     1.499    89.089    21.793    83.503     0.000     0.000     9.273    11.556     0.000     0.000     0.000     0.000     0.000     0.000     0.850     0.001     0.000 .00000E+00 0.000E+00 0.000E+00 0.000E+00 0.000E+00 0.000E+00
BIGSUB   0        0    0
BIGSUB   1        0    7.24803E+01     3.296     0.149    98.591    15.787    70.069     0.000     0.000     0.000    28.390     0.000     0.000     0.000     0.000     0.000     0.000     0.052     0.000     0.000 .00000E+00 0.000E+00 0.000E+00 0.000E+00 0.000E+00 0.000E+00
BIGSUB   0        0    0
BIGSUB   2        0    7.14730E+01     8.683     2.948    91.478    16.027    77.657     0.000     0.000     0.000    26.170     0.000     0.000     0.000     0.000     0.000     0.000     0.747     0.002     0.000 .00000E+00 0.000E+00 0.000E+00 0.000E+00 0.000E+00 0.000E+00
BIGSUB   0        0    0
BIGSUB   3        0    7.13769E+01     7.618     1.401    93.114    16.162    76.500     0.000     0.000     0.627     2.350     0.000     0.000     0.000     0.000     0.000     0.000     0.588     0.002     0.000 .00000E+00 0.000E+00 0.000E+00 0.000E+00 0.000E+00 0.000E+00
BIGSUB   0        0    0
BIGSUB   1        0    8.24803E+01     9.599     0.116    75.296    14.742    65.697     0.000     0.000     0.000    22.161     0.000     0.000     0.000     0.000     0.000     0.000     0.950     0.012     0.000 .00000E+00 0.000E+00 0.000E+00 0.000E+00 0.000E+00 0.000E+00
BIGSUB   0        0    0
BIGSUB   2        0    8.14730E+01    20.561     2.438    69.942    21.705    75.462     0.022     0.001     0.000    21.419     0.001     0.000     0.000     0.000     0.000     0.000     2.382     0.004     0.000 .00000E+00 0.000E+00 0.000E+00 0.000E+00 0.000E+00 0.000E+00
BIGSUB   0        0    0
BIGSUB   3        0    8.13769E+01    18.432     0.972    71.236    20.963    73.732     0.000     0.000     0.036     2.953     0.000     0.000     0.000     0.000     0.000     0.000     2.068     0.004     0.000 .00000E+00 0.000E+00 0.000E+00 0.000E+00 0.000E+00 0.000E+00
BIGSUB   0        0    0
BIGSUB   1        0    9.24803E+01    27.283     0.038    57.951    13.082    75.492     0.000     0.852     0.000    20.436     1.960     0.002     0.000     0.014     0.000     0.000     4.306     0.023     0.000 .00000E+00 0.000E+00 0.000E+00 0.000E+00 0.000E+00 0.000E+00
BIGSUB   0        0    0
BIGSUB   2        0    9.14730E+01    38.632     2.143    53.915    18.693    86.748     0.059     1.475     0.000    22.487    13.801     0.000     0.000     0.001     0.000     0.000     7.295     0.004     0.000 .00000E+00 0.000E+00 0.000E+00 0.000E+00 0.000E+00 0.000E+00
BIGSUB   0        0    0
BIGSUB   3        0    9.13769E+01    36.516     0.611    54.952    18.815    83.572     0.000     1.336     0.000     8.925     7.022     0.000     0.000     0.002     0.000     0.000     6.977     0.006     0.000 .00000E+00 0.000E+00 0.000E+00 0.000E+00 0.000E+00 0.000E+00
BIGSUB   0        0    0
BIGSUB   1        0   10.24803E+01    74.738     0.390    38.478    25.127   101.870     0.596     4.718     0.000    35.516    23.659     0.023     0.003     0.001     0.000     0.002    19.093     0.020     0.000 .00000E+00 0.000E+00 0.000E+00 0.000E+00 0.000E+00 0.000E+00
BIGSUB   0        0    0
BIGSUB   2        0   10.14730E+01    90.313     9.674    33.974    26.552   113.870     0.411     6.208     0.000    48.048    35.353     0.001     0.000     0.000     0.000     0.000    31.319     0.040     0.000 .00000E+00 0.000E+00 0.000E+00 0.000E+00 0.000E+00 0.000E+00
BIGSUB   0        0    0
BIGSUB   3        0   10.13769E+01    87.599     3.951    35.479    27.057   109.722     0.333     6.028     0.008    36.151    28.899     0.001     0.000     0.000     0.000     0.000    29.647     0.033     0.000 .00000E+00 0.000E+00 0.000E+00 0.000E+00 0.000E+00 0.000E+00
BIGSUB   0        0    0
BIGSUB   1        0   11.24803E+01    77.758     0.703    22.299    15.749   121.244     9.065     6.312     0.000    37.844    20.326     0.029     0.004     0.000     0.000     0.003    25.343     0.054     0.000 .00000E+00 0.000E+00 0.000E+00 0.000E+00 0.000E+00 0.000E+00
BIGSUB   0        0    0
BIGSUB   2        0   11.14730E+01    87.974    14.806    15.681    11.800   121.238    14.222     5.562     0.000    50.007    19.220     0.001     0.000     0.000     0.000     0.000    38.857     0.105     0.000 .00000E+00 0.000E+00 0.000E+00 0.000E+00 0.000E+00 0.000E+00
BIGSUB   0        0    0
BIGSUB   3        0   11.13769E+01    86.229     9.760    17.128    12.703   121.325    11.650     6.436     0.087    45.131    21.696     0.001     0.000     0.000     0.000     0.000    38.360     0.097     0.000 .00000E+00 0.000E+00 0.000E+00 0.000E+00 0.000E+00 0.000E+00
BIGSUB   0        0    0
BIGSUB   1        0 1998.24803E+01  1093.231     4.594   596.861   226.867   121.244   250.057   217.769     0.000   946.730   691.272    28.584     3.497     0.016     0.004     2.811   411.659     0.569     0.000 .00000E+00 0.000E+00 0.000E+00 0.000E+00 0.000E+00 0.000E+00
BIGSUB   0        0    0
BIGSUB   2        0 1998.14730E+01  1227.292   126.005   511.141   204.467   121.238   228.802   243.135     0.000  1134.455  1256.359    29.673     3.628     0.002     0.002     2.927   607.015     0.677     0.000 .00000E+00 0.000E+00 0.000E+00 0.000E+00 0.000E+00 0.000E+00
BIGSUB   0        0    0
BIGSUB   3        0 1998.13769E+01  1204.163    53.889   547.806   231.610   121.325   199.868   234.484   229.108  1045.371  1007.518    29.346     3.588     0.003     0.002     2.894   568.764     0.656     0.038 .00000E+00 0.000E+00 0.000E+00 0.000E+00 0.000E+00 0.000E+00
BIGSUB   0        0    0
BIGSUB   1        0  9.7.24803E+01  1026.661    30.945   485.569   222.147   121.244   252.416   147.119     0.000   805.584   455.680    43.039     5.268     0.005     0.004     4.195   409.838     1.257     0.000 .00000E+00 0.000E+00 0.000E+00 0.000E+00 0.000E+00 0.000E+00
BIGSUB   0        0  0.0
BIGSUB   2        0  9.7.14730E+01  1207.439   333.223   381.380   198.131   121.238   258.914   130.909     0.000  1021.464   556.267    46.174     5.652     0.001     0.002     4.505   635.672     1.579     0.000 .00000E+00 0.000E+00 0.000E+00 0.000E+00 0.000E+00 0.000E+00
BIGSUB   0        0  0.0
BIGSUB   3        0  9.7.13769E+01  1175.768   196.525   428.524   233.763   121.325   239.091   153.337   215.543  1010.199   574.962    47.019     5.756     0.002     0.002     4.594   629.535     1.589     0.044 .00000E+00 0.000E+00 0.000E+00 0.000E+00 0.000E+00 0.000E+00
BIGSUB   0        0  0.0
