1
    SWAT Dec 23 2016    VER 2016/Rev 664                                                                 0/ 0/   0      0: 0: 0

    General Input/Output section (file.cio):                                        
    5/31/2025 12:00:00 AM ARCGIS-SWAT interface AV                                  
                                                                                    


       SUBTEST      GIS  MON   AREAkm2  PRECIPmm SNOMELTmm     PETmm      ETmm      SWmm    PERCmm    SURQmm    GW_Qmm    WYLDmm  SYLDt/ha ORGNkg/ha ORGPkg/haNSURQkg/ha SOLPkg/ha SEDPkg/ha LAT Q(mm)LATNO3kg/hGWNO3kg/haCHOLAmic/LCBODU mg/L DOXQ mg/L TNO3kg/ha   QTILEmm TVAPkg/ha  GLMELTmm   GLACCmm
BIGSUB   1        0    3.24803E+01   146.857    20.266    11.276     7.660   142.934    37.118    14.137     0.000    16.058    34.281    76.666     9.392     0.005     0.003     7.323     1.763     0.049     0.000 .00000E+00 0.000E+00 0.000E+00 0.000E+00 0.000E+00 0.000E+00     0.017     0.076
BIGSUB   2        0    3.14730E+01   156.184    50.479     6.428     3.313   136.758    22.372     6.760     0.000     8.749    19.434    50.523     6.189     0.002     0.002     4.819     1.901     0.045     0.000 .00000E+00 0.000E+00 0.000E+00 0.000E+00 0.000E+00 0.000E+00     2.327     9.679
BIGSUB   3        0    3.13769E+01   154.731    52.676     7.889     5.032   140.223    34.368    12.420     0.799    15.825    34.606    82.431    10.098     0.003     0.003     7.871     2.596     0.055     0.000 .00000E+00 0.000E+00 0.000E+00 0.000E+00 0.000E+00 0.000E+00    15.223    17.212
BIGSUB   1        0    4.24803E+01    62.145     4.994    34.267    29.833   122.865    49.354     2.022     0.000    16.533     4.366     6.244     0.765     0.000     0.000     0.601     6.985     0.202     0.000 .00000E+00 0.000E+00 0.000E+00 0.000E+00 0.000E+00 0.000E+00     0.030     0.006
BIGSUB   2        0    4.14730E+01    74.862    50.888    26.842    23.856   125.354    84.041    10.521     0.000    28.654    47.198    67.423     8.259     0.000     0.002     6.475    10.919     0.266     0.000 .00000E+00 0.000E+00 0.000E+00 0.000E+00 0.000E+00 0.000E+00     7.519     1.901
BIGSUB   3        0    4.13769E+01    72.685    26.070    32.022    30.007   129.087    93.941     9.760    28.024    50.967    38.823    43.887     5.376     0.000     0.002     4.240    12.745     0.280     0.041 .00000E+00 0.000E+00 0.000E+00 0.000E+00 0.000E+00 0.000E+00    45.771     2.534
BIGSUB   1        0    5.24803E+01    12.483     0.531    53.123    29.552   105.948     1.022     0.000     0.000    18.522     0.000     0.000     0.000     0.000     0.000     0.000     3.533     0.098     0.000 .00000E+00 0.000E+00 0.000E+00 0.000E+00 0.000E+00 0.000E+00     0.018     0.000
BIGSUB   2        0    5.14730E+01    25.155     6.775    50.157    41.458   112.017     5.017     0.000     0.000    25.182     0.000     0.000     0.000     0.000     0.000     0.000     7.015     0.158     0.000 .00000E+00 0.000E+00 0.000E+00 0.000E+00 0.000E+00 0.000E+00     4.605     0.013
BIGSUB   3        0    5.13769E+01    22.851     3.755    51.076    45.801   117.756    22.815     0.011    50.045    61.308     0.013     0.011     0.001     0.000     0.000     0.001    10.122     0.186     0.065 .00000E+00 0.000E+00 0.000E+00 0.000E+00 0.000E+00 0.000E+00    28.619     0.015
BIGSUB   1        0    6.24803E+01     9.160     1.009    52.127    20.102    96.366     0.000     0.000     0.000    15.727     0.000     0.000     0.000     0.000     0.000     0.000     1.266     0.034     0.000 .00000E+00 0.000E+00 0.000E+00 0.000E+00 0.000E+00 0.000E+00     0.007     0.000
BIGSUB   2        0    6.14730E+01    20.303    10.232    49.281    33.543   104.699     0.018     0.000     0.000    21.343     0.000     0.000     0.000     0.000     0.000     0.000     2.629     0.056     0.000 .00000E+00 0.000E+00 0.000E+00 0.000E+00 0.000E+00 0.000E+00     1.568     0.020
BIGSUB   3        0    6.13769E+01    18.235     7.235    50.129    41.215   111.731     2.572     0.000    35.035    40.793     0.000     0.000     0.000     0.000     0.000     0.000     4.491     0.075     0.024 .00000E+00 0.000E+00 0.000E+00 0.000E+00 0.000E+00 0.000E+00    10.054     0.028
BIGSUB   1        0    7.24803E+01     5.435     1.588    68.727    16.195    87.426     0.000     0.000     0.000    12.943     0.000     0.000     0.000     0.000     0.000     0.000     0.478     0.013     0.000 .00000E+00 0.000E+00 0.000E+00 0.000E+00 0.000E+00 0.000E+00     0.012     0.000
BIGSUB   2        0    7.14730E+01    14.380    10.385    64.807    31.937    95.790     0.000     0.000     0.000    17.513     0.000     0.000     0.000     0.000     0.000     0.000     1.031     0.021     0.000 .00000E+00 0.000E+00 0.000E+00 0.000E+00 0.000E+00 0.000E+00     2.814     0.018
BIGSUB   3        0    7.13769E+01    12.631     8.219    65.841    46.322   109.133     0.000     0.000    18.547    21.605     0.000     0.000     0.000     0.000     0.000     0.000     1.890     0.029     0.005 .00000E+00 0.000E+00 0.000E+00 0.000E+00 0.000E+00 0.000E+00    18.408     0.024
BIGSUB   1        0    8.24803E+01    11.839     0.951    53.083    17.519    83.124     0.000     0.000     0.000     9.884     0.000     0.000     0.000     0.000     0.000     0.000     0.194     0.005     0.000 .00000E+00 0.000E+00 0.000E+00 0.000E+00 0.000E+00 0.000E+00     0.032     0.000
BIGSUB   2        0    8.14730E+01    23.878    10.724    50.205    32.040    98.699     0.019     0.000     0.000    13.465     0.000     0.000     0.000     0.000     0.000     0.000     0.536     0.008     0.000 .00000E+00 0.000E+00 0.000E+00 0.000E+00 0.000E+00 0.000E+00     7.401     0.020
BIGSUB   3        0    8.13769E+01    21.655     7.259    51.030    41.096   115.504    25.523     0.061     9.655    13.272     0.217     0.142     0.017     0.000     0.000     0.014     2.584     0.029     0.002 .00000E+00 0.000E+00 0.000E+00 0.000E+00 0.000E+00 0.000E+00    47.647     0.029
BIGSUB   1        0    9.24803E+01    18.998     0.175    34.709    14.084    88.829     0.000     0.000     0.000     7.228     0.000     0.000     0.000     0.000     0.000     0.000     0.124     0.002     0.000 .00000E+00 0.000E+00 0.000E+00 0.000E+00 0.000E+00 0.000E+00     0.055     0.000
BIGSUB   2        0    9.14730E+01    31.074     4.516    32.827    23.611   108.555    12.263     0.058     0.000    11.121     0.145     0.173     0.021     0.000     0.000     0.017     1.197     0.018     0.000 .00000E+00 0.000E+00 0.000E+00 0.000E+00 0.000E+00 0.000E+00    15.212     0.013
BIGSUB   3        0    9.13769E+01    28.856     1.763    33.404    28.223   123.637    70.304     6.230    20.362    34.586    13.918    12.804     1.568     0.000     0.000     1.257     6.999     0.065     0.013 .00000E+00 0.000E+00 0.000E+00 0.000E+00 0.000E+00 0.000E+00    91.961     0.011
BIGSUB   1        0   10.24803E+01    73.906     2.182    28.688    25.574   124.652     8.667     1.857     0.000     8.100     7.983     7.689     0.942     0.000     0.000     0.747     0.734     0.007     0.000 .00000E+00 0.000E+00 0.000E+00 0.000E+00 0.000E+00 0.000E+00     0.059     0.001
BIGSUB   2        0   10.14730E+01    87.628    26.764    26.021    25.031   127.831    44.277     3.828     0.000    18.598    19.767    14.382     1.761     0.000     0.000     1.407     4.416     0.062     0.000 .00000E+00 0.000E+00 0.000E+00 0.000E+00 0.000E+00 0.000E+00    13.037     0.206
BIGSUB   3        0   10.13769E+01    85.302    15.754    27.513    26.850   135.432    96.910    18.741    46.555    79.636    58.044    23.496     2.878     0.000     0.001     2.319    12.865     0.088     0.038 .00000E+00 0.000E+00 0.000E+00 0.000E+00 0.000E+00 0.000E+00    84.486     0.238
BIGSUB   1        0   11.24803E+01    77.722     2.225    20.970    19.561   128.572    40.120     8.906     0.000    19.751    24.189    22.029     2.698     0.001     0.001     2.144     3.689     0.080     0.000 .00000E+00 0.000E+00 0.000E+00 0.000E+00 0.000E+00 0.000E+00     0.093     0.000
BIGSUB   2        0   11.14730E+01    90.559    25.923    19.149    18.442   136.044    62.939    12.216     0.000    37.834    57.876    28.283     3.464     0.000     0.001     2.782     9.032     0.127     0.000 .00000E+00 0.000E+00 0.000E+00 0.000E+00 0.000E+00 0.000E+00    21.326     0.105
BIGSUB   3        0   11.13769E+01    88.398    15.593    19.554    18.879   143.735   128.857    49.581    74.155   144.161   145.078    19.284     2.362     0.000     0.001     1.925    18.269     0.108     0.050 .00000E+00 0.000E+00 0.000E+00 0.000E+00 0.000E+00 0.000E+00   137.351     0.134
BIGSUB   1        0   12.24803E+01    49.333     1.042    28.480    22.576   121.417    28.145     2.280     0.000    18.511     6.460     4.693     0.575     0.000     0.000     0.459     3.940     0.082     0.000 .00000E+00 0.000E+00 0.000E+00 0.000E+00 0.000E+00 0.000E+00     0.107     0.000
BIGSUB   2        0   12.14730E+01    58.773    12.008    25.920    24.914   125.947    58.195     4.974     0.000    41.037    16.111     5.636     0.690     0.000     0.000     0.558     9.724     0.111     0.000 .00000E+00 0.000E+00 0.000E+00 0.000E+00 0.000E+00 0.000E+00    28.733     0.003
BIGSUB   3        0   12.13769E+01    57.143     9.074    26.354    25.510   135.570   136.942    51.353   103.722   179.892   116.307     1.976     0.242     0.000     0.000     0.205    21.652     0.083     0.047 .00000E+00 0.000E+00 0.000E+00 0.000E+00 0.000E+00 0.000E+00   170.423     0.004
BIGSUB   1        0 1989.24803E+01   467.876    34.963   385.450   202.656   121.417   164.426    29.202     0.000   143.257    77.279   117.320    14.371     0.007     0.005    11.273    22.706     0.570     0.000 .00000E+00 0.000E+00 0.000E+00 0.000E+00 0.000E+00 0.000E+00     0.431     0.083
BIGSUB   2        0 1989.14730E+01   582.796   208.694   351.638   258.147   125.947   289.141    38.358     0.000   223.497   160.532   166.419    20.385     0.003     0.005    16.058    48.399     0.871     0.000 .00000E+00 0.000E+00 0.000E+00 0.000E+00 0.000E+00 0.000E+00   104.542    11.978
BIGSUB   3        0 1989.13769E+01   562.486   147.397   364.812   308.936   135.570   612.230   148.156   386.899   642.043   407.005   184.032    22.543     0.004     0.007    17.833    94.212     0.998     0.286 .00000E+00 0.000E+00 0.000E+00 0.000E+00 0.000E+00 0.000E+00   649.945    20.230
BIGSUB   1        0    1.24803E+01   128.762     0.401    14.391    14.117   133.836    81.915     9.288     0.000    33.215    22.360    23.278     2.851     0.000     0.001     2.262     6.413     0.110     0.000 .00000E+00 0.000E+00 0.000E+00 0.000E+00 0.000E+00 0.000E+00     0.089     0.000
BIGSUB   2        0    1.14730E+01   143.110    13.926    12.843    12.657   136.863   106.493    17.148     0.000    65.600    46.546    25.469     3.119     0.000     0.001     2.490    13.243     0.112     0.000 .00000E+00 0.000E+00 0.000E+00 0.000E+00 0.000E+00 0.000E+00    23.558     0.038
BIGSUB   3        0    1.13769E+01   140.759     5.445    13.700    13.428   145.434   162.038    69.012   119.856   217.641   170.433    27.505     3.369     0.000     0.002     2.676    24.719     0.076     0.034 .00000E+00 0.000E+00 0.000E+00 0.000E+00 0.000E+00 0.000E+00   142.864     0.035
BIGSUB   1        0    2.24803E+01    76.874     9.288    19.738    18.461   134.255    45.131     7.016     0.000    39.772    20.053    12.553     1.537     0.000     0.001     1.226     7.489     0.108     0.000 .00000E+00 0.000E+00 0.000E+00 0.000E+00 0.000E+00 0.000E+00     0.068     0.014
BIGSUB   2        0    2.14730E+01    88.307    19.636    17.255    16.502   133.736    65.623    12.142     0.000    69.667    57.949    12.302     1.507     0.000     0.000     1.218    14.364     0.093     0.000 .00000E+00 0.000E+00 0.000E+00 0.000E+00 0.000E+00 0.000E+00    18.197     0.697
BIGSUB   3        0    2.13769E+01    86.384    16.809    17.654    17.069   137.868   123.347    39.162   123.018   191.247   129.248     5.433     0.665     0.000     0.000     0.545    24.636     0.061     0.029 .00000E+00 0.000E+00 0.000E+00 0.000E+00 0.000E+00 0.000E+00   108.977     1.484
BIGSUB   1        0    3.24803E+01    65.470     0.776    38.084    33.829   120.805    37.415     3.428     0.000    45.527    12.123     6.106     0.748     0.000     0.000     0.598     7.029     0.083     0.000 .00000E+00 0.000E+00 0.000E+00 0.000E+00 0.000E+00 0.000E+00     0.051     0.001
BIGSUB   2        0    3.14730E+01    77.775    12.761    32.246    28.751   124.833    59.728     6.112     0.000    75.463    22.732     3.891     0.477     0.000     0.000     0.388    13.522     0.071     0.000 .00000E+00 0.000E+00 0.000E+00 0.000E+00 0.000E+00 0.000E+00    13.371     0.361
BIGSUB   3        0    3.13769E+01    75.681     6.120    33.456    30.750   131.315   101.387    17.236   130.401   176.094    49.251     1.339     0.164     0.000     0.000     0.135    23.051     0.049     0.023 .00000E+00 0.000E+00 0.000E+00 0.000E+00 0.000E+00 0.000E+00    80.053     0.314
BIGSUB   1        0    4.24803E+01    53.528     0.319    48.255    38.902   112.497    17.075     4.021     0.000    43.772    17.564     6.938     0.850     0.000     0.000     0.681     4.323     0.044     0.000 .00000E+00 0.000E+00 0.000E+00 0.000E+00 0.000E+00 0.000E+00     0.036     0.000
BIGSUB   2        0    4.14730E+01    65.775     5.459    45.452    41.415   115.674    34.555     5.439     0.000    71.023    30.145     3.466     0.424     0.000     0.000     0.347     9.624     0.042     0.000 .00000E+00 0.000E+00 0.000E+00 0.000E+00 0.000E+00 0.000E+00     9.761     0.033
BIGSUB   3        0    4.13769E+01    63.669     2.613    46.233    43.349   121.977    71.451    10.872   107.187   141.079    36.359     0.914     0.112     0.000     0.000     0.092    17.728     0.033     0.015 .00000E+00 0.000E+00 0.000E+00 0.000E+00 0.000E+00 0.000E+00    58.199     0.030
BIGSUB   1        0    5.24803E+01    18.983     0.191    64.019    29.597   103.271     0.000     0.000     0.000    35.412     0.000     0.000     0.000     0.000     0.000     0.000     2.172     0.021     0.000 .00000E+00 0.000E+00 0.000E+00 0.000E+00 0.000E+00 0.000E+00     0.020     0.000
BIGSUB   2        0    5.14730E+01    29.625     3.857    60.480    42.456   110.743     2.268     0.004     0.000    58.550     0.015     0.000     0.000     0.000     0.000     0.000     5.166     0.021     0.000 .00000E+00 0.000E+00 0.000E+00 0.000E+00 0.000E+00 0.000E+00     5.731     0.007
BIGSUB   3        0    5.13769E+01    27.725     1.625    61.504    51.514   116.548    22.879     0.179    82.719    99.277     0.596     0.000     0.000     0.000     0.000     0.000    11.272     0.019     0.008 .00000E+00 0.000E+00 0.000E+00 0.000E+00 0.000E+00 0.000E+00    34.083     0.007
BIGSUB   1        0    6.24803E+01    17.836     0.998    50.784    23.728    98.575     0.000     0.000     0.000    26.997     0.000     0.000     0.000     0.000     0.000     0.000     0.816     0.007     0.000 .00000E+00 0.000E+00 0.000E+00 0.000E+00 0.000E+00 0.000E+00     0.007     0.000
BIGSUB   2        0    6.14730E+01    31.133    11.204    47.995    37.370   109.591     0.548     0.000     0.000    44.768     0.000     0.000     0.000     0.000     0.000     0.000     2.130     0.008     0.000 .00000E+00 0.000E+00 0.000E+00 0.000E+00 0.000E+00 0.000E+00     1.700     0.038
BIGSUB   3        0    6.13769E+01    28.752     7.652    48.836    42.697   115.711     5.968     0.000    47.777    57.335     0.000     0.000     0.000     0.000     0.000     0.000     5.349     0.009     0.003 .00000E+00 0.000E+00 0.000E+00 0.000E+00 0.000E+00 0.000E+00    10.621     0.057
BIGSUB   1        0    7.24803E+01    10.276     0.799    54.759    19.614    90.617     0.000     0.000     0.000    21.246     0.000     0.000     0.000     0.000     0.000     0.000     0.350     0.003     0.000 .00000E+00 0.000E+00 0.000E+00 0.000E+00 0.000E+00 0.000E+00     0.013     0.000
BIGSUB   2        0    7.14730E+01    21.312     8.955    51.890    35.064   103.103     0.181     0.000     0.000    35.399     0.000     0.000     0.000     0.000     0.000     0.000     1.028     0.003     0.000 .00000E+00 0.000E+00 0.000E+00 0.000E+00 0.000E+00 0.000E+00     3.047     0.013
BIGSUB   3        0    7.13769E+01    19.247     5.903    52.715    43.189   113.053     7.007     0.000    24.654    31.081     0.000     0.000     0.000     0.000     0.000     0.000     2.941     0.005     0.001 .00000E+00 0.000E+00 0.000E+00 0.000E+00 0.000E+00 0.000E+00    19.521     0.016
BIGSUB   1        0    8.24803E+01    14.813     0.787    45.443    15.936    90.609     0.000     0.000     0.000    15.842     0.000     0.000     0.000     0.000     0.000     0.000     0.156     0.001     0.000 .00000E+00 0.000E+00 0.000E+00 0.000E+00 0.000E+00 0.000E+00     0.034     0.000
BIGSUB   2        0    8.14730E+01    27.644     7.915    42.971    30.443   106.602     4.622     0.110     0.000    26.845     0.543     0.015     0.002     0.000     0.000     0.002     0.730     0.002     0.000 .00000E+00 0.000E+00 0.000E+00 0.000E+00 0.000E+00 0.000E+00     8.854     0.013
BIGSUB   3        0    8.13769E+01    25.263     4.759    43.697    36.353   120.607    35.615     1.511    16.129    24.036     6.989     0.002     0.000     0.000     0.000     0.000     3.643     0.009     0.001 .00000E+00 0.000E+00 0.000E+00 0.000E+00 0.000E+00 0.000E+00    55.068     0.013
BIGSUB   1        0    9.24803E+01    21.823     0.239    35.529    20.210    92.925     0.000     0.000     0.000    11.482     0.000     0.000     0.000     0.000     0.000     0.000     0.168     0.000     0.000 .00000E+00 0.000E+00 0.000E+00 0.000E+00 0.000E+00 0.000E+00     0.058     0.000
BIGSUB   2        0    9.14730E+01    34.748     5.581    33.530    29.818   111.752    14.525     0.080     0.000    21.851     0.167     0.006     0.001     0.000     0.000     0.001     1.902     0.007     0.000 .00000E+00 0.000E+00 0.000E+00 0.000E+00 0.000E+00 0.000E+00    15.784     0.012
BIGSUB   3        0    9.13769E+01    32.452     2.124    34.151    31.130   126.162    74.896     8.328    28.329    47.589    15.926     0.008     0.001     0.000     0.000     0.001     8.557     0.022     0.005 .00000E+00 0.000E+00 0.000E+00 0.000E+00 0.000E+00 0.000E+00    96.200     0.010
BIGSUB   1        0   10.24803E+01    59.249     0.464    29.340    24.045   122.051     4.459     0.353     0.000     9.538     0.992     0.357     0.044     0.000     0.000     0.035     0.507     0.002     0.000 .00000E+00 0.000E+00 0.000E+00 0.000E+00 0.000E+00 0.000E+00     0.070     0.000
BIGSUB   2        0   10.14730E+01    72.541     8.861    26.926    25.819   126.320    41.065     2.304     0.000    25.038     6.047     0.492     0.060     0.000     0.000     0.050     4.300     0.019     0.000 .00000E+00 0.000E+00 0.000E+00 0.000E+00 0.000E+00 0.000E+00    18.692     0.084
BIGSUB   3        0   10.13769E+01    70.281     4.298    28.117    27.199   134.370   107.153    23.120    54.372    94.413    56.895     0.187     0.023     0.000     0.000     0.019    14.288     0.032     0.014 .00000E+00 0.000E+00 0.000E+00 0.000E+00 0.000E+00 0.000E+00   112.367     0.093
BIGSUB   1        0   11.24803E+01   128.203     1.077    23.267    22.738   136.235    67.873    14.102     0.000    27.800    41.534    12.999     1.592     0.001     0.001     1.283     4.518     0.047     0.000 .00000E+00 0.000E+00 0.000E+00 0.000E+00 0.000E+00 0.000E+00     0.077     0.000
BIGSUB   2        0   11.14730E+01   141.641    16.854    20.303    19.954   137.467    92.005    18.860     0.000    52.406    59.434     4.391     0.538     0.000     0.000     0.444    10.933     0.060     0.000 .00000E+00 0.000E+00 0.000E+00 0.000E+00 0.000E+00 0.000E+00    19.965     0.096
BIGSUB   3        0   11.13769E+01   139.450     9.092    21.137    20.705   144.348   144.072    59.484    81.874   165.141   151.410     1.671     0.205     0.000     0.000     0.169    20.692     0.052     0.021 .00000E+00 0.000E+00 0.000E+00 0.000E+00 0.000E+00 0.000E+00   121.687     0.102
BIGSUB   1        0   12.24803E+01   135.979     2.489    14.477    13.689   140.266    90.268    16.175     0.000    44.134    38.895     7.867     0.963     0.000     0.001     0.780     8.612     0.079     0.000 .00000E+00 0.000E+00 0.000E+00 0.000E+00 0.000E+00 0.000E+00     0.087     0.000
BIGSUB   2        0   12.14730E+01   149.344    32.967    11.037    10.451   141.533   112.865    24.192     0.000    76.733    82.240     3.010     0.369     0.000     0.000     0.306    16.006     0.075     0.000 .00000E+00 0.000E+00 0.000E+00 0.000E+00 0.000E+00 0.000E+00    20.597     0.020
BIGSUB   3        0   12.13769E+01   147.160    22.657    12.510    11.978   146.719   164.362    68.533   116.104   215.057   196.036     1.499     0.184     0.000     0.000     0.153    26.360     0.056     0.026 .00000E+00 0.000E+00 0.000E+00 0.000E+00 0.000E+00 0.000E+00   128.091     0.025
BIGSUB   1        0 1990.24803E+01   731.795    17.827   438.086   274.868   140.266   344.135    54.382     0.000   354.737   153.520    70.098     8.584     0.002     0.003     6.866    42.553     0.505     0.000 .00000E+00 0.000E+00 0.000E+00 0.000E+00 0.000E+00 0.000E+00     0.610     0.016
BIGSUB   2        0 1990.14730E+01   882.956   147.977   402.929   330.700   141.533   534.476    86.391     0.000   623.342   305.817    53.043     6.496     0.001     0.002     5.245    92.948     0.512     0.000 .00000E+00 0.000E+00 0.000E+00 0.000E+00 0.000E+00 0.000E+00   159.257     1.413
BIGSUB   3        0 1990.13769E+01   856.823    89.096   413.709   369.361   146.719  1020.173   297.439   932.419  1459.991   813.143    38.559     4.724     0.001     0.002     3.792   183.238     0.422     0.182 .00000E+00 0.000E+00 0.000E+00 0.000E+00 0.000E+00 0.000E+00   967.731     2.187
BIGSUB   1        0    1.24803E+01   106.754     1.427    19.217    18.797   134.205    77.391     6.969     0.000    51.252    15.538     8.210     1.005     0.000     0.000     0.796    10.661     0.075     0.000 .00000E+00 0.000E+00 0.000E+00 0.000E+00 0.000E+00 0.000E+00     0.098     0.000
BIGSUB   2        0    1.14730E+01   120.626    17.343    14.287    13.630   137.127   106.863    14.124     0.000    86.200    49.210    13.826     1.693     0.000     0.000     1.335    19.150     0.067     0.000 .00000E+00 0.000E+00 0.000E+00 0.000E+00 0.000E+00 0.000E+00    26.677     0.071
BIGSUB   3        0    1.13769E+01   118.332    10.690    18.042    17.643   144.806   164.067    69.607   138.893   242.786   178.416    23.766     2.910     0.000     0.002     2.304    29.286     0.045     0.025 .00000E+00 0.000E+00 0.000E+00 0.000E+00 0.000E+00 0.000E+00   159.486     0.085
BIGSUB   1        0    2.24803E+01   130.600     0.742    25.033    23.336   137.445    72.358    21.976     0.000    71.946    77.401    18.877     2.311     0.000     0.001     1.845     9.520     0.051     0.000 .00000E+00 0.000E+00 0.000E+00 0.000E+00 0.000E+00 0.000E+00     0.065     0.001
BIGSUB   2        0    2.14730E+01   142.205    16.802    21.174    20.066   139.522    94.138    26.160     0.000   103.035    94.044    12.531     1.534     0.000     0.000     1.226    17.311     0.046     0.000 .00000E+00 0.000E+00 0.000E+00 0.000E+00 0.000E+00 0.000E+00    17.325     0.243
BIGSUB   3        0    2.13769E+01   140.335     8.608    22.994    22.228   145.962   137.677    59.235   133.145   223.840   168.095     4.921     0.603     0.000     0.000     0.488    26.273     0.031     0.018 .00000E+00 0.000E+00 0.000E+00 0.000E+00 0.000E+00 0.000E+00   103.712     0.269
BIGSUB   1        0    3.24803E+01   147.719     1.328    31.501    28.697   122.255   104.074    17.372     0.000    85.337    37.929     5.528     0.677     0.000     0.001     0.549    12.779     0.050     0.000 .00000E+00 0.000E+00 0.000E+00 0.000E+00 0.000E+00 0.000E+00     0.044     0.001
BIGSUB   2        0    3.14730E+01   161.141    20.850    25.346    23.163   124.446   120.743    22.761     0.000   121.347    81.489     4.066     0.498     0.000     0.000     0.407    21.457     0.044     0.000 .00000E+00 0.000E+00 0.000E+00 0.000E+00 0.000E+00 0.000E+00    10.671     0.508
BIGSUB   3        0    3.13769E+01   158.969    11.088    30.160    28.767   128.713   146.939    42.877   149.594   228.313   140.875     1.431     0.176     0.000     0.000     0.144    29.550     0.032     0.019 .00000E+00 0.000E+00 0.000E+00 0.000E+00 0.000E+00 0.000E+00    65.591     0.432
BIGSUB   1        0    4.24803E+01    61.798     0.393    33.270    31.277   118.753    27.813     2.892     0.000    71.603     6.814     0.551     0.067     0.000     0.000     0.055     8.389     0.028     0.000 .00000E+00 0.000E+00 0.000E+00 0.000E+00 0.000E+00 0.000E+00     0.033     0.000
BIGSUB   2        0    4.14730E+01    75.430     7.625    31.359    30.761   122.622    44.784     4.433     0.000   100.375    16.156     0.333     0.041     0.000     0.000     0.034    14.831     0.027     0.000 .00000E+00 0.000E+00 0.000E+00 0.000E+00 0.000E+00 0.000E+00     8.839     0.060
BIGSUB   3        0    4.13769E+01    73.093     3.575    31.965    31.305   127.565    77.720     9.299   129.429   166.297    28.560     0.109     0.014     0.000     0.000     0.011    21.304     0.022     0.014 .00000E+00 0.000E+00 0.000E+00 0.000E+00 0.000E+00 0.000E+00    53.249     0.055
BIGSUB   1        0    5.24803E+01    23.214     0.173    48.892    33.531   108.048     0.974     0.078     0.000    62.548     0.122     0.009     0.001     0.000     0.000     0.001     4.162     0.013     0.000 .00000E+00 0.000E+00 0.000E+00 0.000E+00 0.000E+00 0.000E+00     0.020     0.000
BIGSUB   2        0    5.14730E+01    35.758     3.696    46.210    40.391   113.267    11.641     0.203     0.000    87.779     1.097     0.017     0.002     0.000     0.000     0.002     8.666     0.015     0.000 .00000E+00 0.000E+00 0.000E+00 0.000E+00 0.000E+00 0.000E+00     5.528     0.017
BIGSUB   3        0    5.13769E+01    33.464     1.284    47.026    43.222   118.550    34.319     0.611   100.843   121.912     2.047     0.006     0.001     0.000     0.000     0.001    14.379     0.015     0.008 .00000E+00 0.000E+00 0.000E+00 0.000E+00 0.000E+00 0.000E+00    32.896     0.008
BIGSUB   1        0    6.24803E+01     9.492     0.335    56.935    22.337    96.618     0.000     0.000     0.000    48.029     0.000     0.000     0.000     0.000     0.000     0.000     1.493     0.005     0.000 .00000E+00 0.000E+00 0.000E+00 0.000E+00 0.000E+00 0.000E+00     0.008     0.000
BIGSUB   2        0    6.14730E+01    20.705     5.156    53.851    36.621   104.213     0.121     0.000     0.000    67.642     0.000     0.000     0.000     0.000     0.000     0.000     3.384     0.006     0.000 .00000E+00 0.000E+00 0.000E+00 0.000E+00 0.000E+00 0.000E+00     2.223     0.007
BIGSUB   3        0    6.13769E+01    18.638     2.699    54.735    45.005   111.558     4.481     0.000    59.618    71.187     0.000     0.000     0.000     0.000     0.000     0.000     6.516     0.007     0.003 .00000E+00 0.000E+00 0.000E+00 0.000E+00 0.000E+00 0.000E+00    13.778     0.007
BIGSUB   1        0    7.24803E+01     7.392     0.679    64.651    17.606    88.170     0.000     0.000     0.000    37.925     0.000     0.000     0.000     0.000     0.000     0.000     0.565     0.002     0.000 .00000E+00 0.000E+00 0.000E+00 0.000E+00 0.000E+00 0.000E+00     0.014     0.000
BIGSUB   2        0    7.14730E+01    17.056     8.562    61.099    32.715    97.387     0.000     0.000     0.000    53.424     0.000     0.000     0.000     0.000     0.000     0.000     1.333     0.002     0.000 .00000E+00 0.000E+00 0.000E+00 0.000E+00 0.000E+00 0.000E+00     3.352     0.012
BIGSUB   3        0    7.13769E+01    15.150     5.273    62.101    47.297   111.206     1.613     0.000    27.822    34.735     0.000     0.000     0.000     0.000     0.000     0.000     2.748     0.003     0.001 .00000E+00 0.000E+00 0.000E+00 0.000E+00 0.000E+00 0.000E+00    21.907     0.014
BIGSUB   1        0    8.24803E+01    12.504     0.155    48.292    16.032    85.889     0.000     0.000     0.000    28.367     0.000     0.000     0.000     0.000     0.000     0.000     0.246     0.001     0.000 .00000E+00 0.000E+00 0.000E+00 0.000E+00 0.000E+00 0.000E+00     0.038     0.000
BIGSUB   2        0    8.14730E+01    24.376     2.818    45.669    29.464   102.190     3.609     0.001     0.000    40.278     0.005     0.000     0.000     0.000     0.000     0.000     0.847     0.002     0.000 .00000E+00 0.000E+00 0.000E+00 0.000E+00 0.000E+00 0.000E+00    10.877     0.003
BIGSUB   3        0    8.13769E+01    22.152     1.205    46.436    37.531   118.651    41.550     0.934    11.493    19.658     2.786     0.000     0.000     0.000     0.000     0.000     3.986     0.009     0.001 .00000E+00 0.000E+00 0.000E+00 0.000E+00 0.000E+00 0.000E+00    65.090     0.002
BIGSUB   1        0    9.24803E+01    14.042     0.977    38.582    15.534    85.363     0.000     0.000     0.000    20.440     0.000     0.000     0.000     0.000     0.000     0.000     0.130     0.000     0.000 .00000E+00 0.000E+00 0.000E+00 0.000E+00 0.000E+00 0.000E+00     0.062     0.000
BIGSUB   2        0    9.14730E+01    25.981     7.156    36.427    25.704   106.527    12.738     0.043     0.000    31.099     0.148     0.001     0.000     0.000     0.000     0.000     1.647     0.005     0.000 .00000E+00 0.000E+00 0.000E+00 0.000E+00 0.000E+00 0.000E+00    17.128     0.032
BIGSUB   3        0    9.13769E+01    23.760     5.173    37.083    30.663   124.814    72.009     9.258    27.907    48.401    23.044     0.003     0.001     0.000     0.000     0.000     8.493     0.021     0.005 .00000E+00 0.000E+00 0.000E+00 0.000E+00 0.000E+00 0.000E+00   102.179     0.046
BIGSUB   1        0   10.24803E+01    53.244     1.420    29.545    20.798   116.938     0.027     0.653     0.000    16.505     2.279     0.150     0.018     0.000     0.000     0.015     0.280     0.000     0.000 .00000E+00 0.000E+00 0.000E+00 0.000E+00 0.000E+00 0.000E+00     0.067     0.000
BIGSUB   2        0   10.14730E+01    66.733    17.487    27.765    25.803   130.011    25.581     2.771     0.000    31.414    12.938     0.129     0.016     0.000     0.000     0.013     3.361     0.011     0.000 .00000E+00 0.000E+00 0.000E+00 0.000E+00 0.000E+00 0.000E+00    15.649     0.104
BIGSUB   3        0   10.13769E+01    64.387    10.102    28.328    26.682   136.811    92.192    18.970    52.996    88.271    73.553     0.054     0.007     0.000     0.000     0.006    13.410     0.027     0.013 .00000E+00 0.000E+00 0.000E+00 0.000E+00 0.000E+00 0.000E+00    99.477     0.110
BIGSUB   1        0   11.24803E+01    58.719     1.724    24.864    21.355   129.437    18.583     3.305     0.000    16.273     7.797     0.518     0.063     0.001     0.000     0.052     1.438     0.007     0.000 .00000E+00 0.000E+00 0.000E+00 0.000E+00 0.000E+00 0.000E+00     0.082     0.000
BIGSUB   2        0   11.14730E+01    70.009    21.156    21.734    20.964   133.596    51.437     4.926     0.000    34.706    15.552     0.177     0.022     0.000     0.000     0.018     5.990     0.026     0.000 .00000E+00 0.000E+00 0.000E+00 0.000E+00 0.000E+00 0.000E+00    19.139     0.112
BIGSUB   3        0   11.13769E+01    68.069    14.025    23.075    22.070   141.276   112.665    31.012    70.902   120.984    88.552     0.111     0.014     0.000     0.000     0.012    15.963     0.031     0.016 .00000E+00 0.000E+00 0.000E+00 0.000E+00 0.000E+00 0.000E+00   119.815     0.140
BIGSUB   1        0   12.24803E+01    74.976     0.820    16.654    15.643   130.749    47.261     4.608     0.000    21.680    12.999     0.764     0.094     0.000     0.000     0.077     4.004     0.026     0.000 .00000E+00 0.000E+00 0.000E+00 0.000E+00 0.000E+00 0.000E+00     0.103     0.000
BIGSUB   2        0   12.14730E+01    88.046    12.253    14.224    13.931   133.396    77.683    10.133     0.000    49.727    44.002     0.438     0.054     0.000     0.000     0.046     9.976     0.042     0.000 .00000E+00 0.000E+00 0.000E+00 0.000E+00 0.000E+00 0.000E+00    27.379     0.006
BIGSUB   3        0   12.13769E+01    85.802     6.678    15.372    14.990   138.964   151.720    61.958    97.699   185.028   147.985     0.106     0.013     0.000     0.000     0.011    21.587     0.036     0.019 .00000E+00 0.000E+00 0.000E+00 0.000E+00 0.000E+00 0.000E+00   165.503     0.007
BIGSUB   1        0 1991.24803E+01   700.454    10.172   437.437   264.942   130.749   348.481    57.852     0.000   531.906   160.877    34.607     4.237     0.002     0.002     3.391    53.667     0.260     0.000 .00000E+00 0.000E+00 0.000E+00 0.000E+00 0.000E+00 0.000E+00     0.633     0.003
BIGSUB   2        0 1991.14730E+01   848.065   140.904   399.146   313.214   133.396   549.338    85.555     0.000   807.024   314.640    31.519     3.859     0.001     0.001     3.081   107.953     0.292     0.000 .00000E+00 0.000E+00 0.000E+00 0.000E+00 0.000E+00 0.000E+00   164.789     1.173
BIGSUB   3        0 1991.13769E+01   822.153    80.399   417.317   367.403   138.964  1036.952   303.761  1000.340  1551.411   853.914    30.507     3.738     0.001     0.002     2.978   193.495     0.280     0.141 .00000E+00 0.000E+00 0.000E+00 0.000E+00 0.000E+00 0.000E+00  1002.684     1.174
BIGSUB   1        0    1.24803E+01   104.406     0.441    21.607    20.221   122.334    70.291    13.580     0.000    41.210    47.471    14.037     1.718     0.001     0.001     1.359     7.387     0.045     0.000 .00000E+00 0.000E+00 0.000E+00 0.000E+00 0.000E+00 0.000E+00     0.105     0.000
BIGSUB   2        0    1.14730E+01   117.357     9.642    20.150    19.350   126.626    96.112    21.886     0.000    76.920   107.377    21.349     2.613     0.000     0.001     2.064    14.869     0.053     0.000 .00000E+00 0.000E+00 0.000E+00 0.000E+00 0.000E+00 0.000E+00    28.954     0.009
BIGSUB   3        0    1.13769E+01   115.222     4.323    20.583    19.967   137.927   160.582    81.359   124.282   236.736   264.479    26.461     3.239     0.000     0.002     2.567    26.498     0.035     0.017 .00000E+00 0.000E+00 0.000E+00 0.000E+00 0.000E+00 0.000E+00   173.532     0.009
BIGSUB   1        0    2.24803E+01   103.697     1.233    20.046    18.631   134.223    56.115     9.388     0.000    42.981    33.716     5.705     0.698     0.000     0.000     0.560     6.760     0.036     0.000 .00000E+00 0.000E+00 0.000E+00 0.000E+00 0.000E+00 0.000E+00     0.071     0.001
BIGSUB   2        0    2.14730E+01   116.459    14.152    18.298    17.651   136.469    79.144    14.245     0.000    75.426    62.368     4.291     0.525     0.000     0.000     0.428    13.780     0.040     0.000 .00000E+00 0.000E+00 0.000E+00 0.000E+00 0.000E+00 0.000E+00    18.819     0.142
BIGSUB   3        0    2.13769E+01   114.324     8.136    19.180    18.672   142.683   133.823    47.582   127.663   205.125   166.762     2.038     0.250     0.000     0.000     0.210    24.902     0.027     0.013 .00000E+00 0.000E+00 0.000E+00 0.000E+00 0.000E+00 0.000E+00   113.620     0.177
BIGSUB   1        0    3.24803E+01    93.812     2.017    43.524    38.859   129.436    44.705     9.208     0.000    54.203    44.999     5.177     0.634     0.000     0.000     0.511     8.223     0.037     0.000 .00000E+00 0.000E+00 0.000E+00 0.000E+00 0.000E+00 0.000E+00     0.056     0.004
BIGSUB   2        0    3.14730E+01   106.757    14.362    39.862    36.846   131.393    64.955     9.608     0.000    84.621    45.313     2.215     0.271     0.000     0.000     0.222    15.473     0.039     0.000 .00000E+00 0.000E+00 0.000E+00 0.000E+00 0.000E+00 0.000E+00    14.863     0.489
BIGSUB   3        0    3.13769E+01   104.611    10.206    40.574    38.225   136.699   114.013    28.590   137.184   197.213    88.673     1.150     0.141     0.000     0.000     0.116    25.616     0.028     0.015 .00000E+00 0.000E+00 0.000E+00 0.000E+00 0.000E+00 0.000E+00    89.332     0.879
BIGSUB   1        0    4.24803E+01    33.400     0.259    42.660    30.883   117.177    11.166     3.309     0.000    46.053    17.128     1.283     0.157     0.001     0.000     0.127     4.576     0.019     0.000 .00000E+00 0.000E+00 0.000E+00 0.000E+00 0.000E+00 0.000E+00     0.039     0.000
BIGSUB   2        0    4.14730E+01    45.671     8.661    40.187    36.407   120.560    28.091     6.021     0.000    75.966    19.685     0.932     0.114     0.000     0.000     0.094     9.882     0.023     0.000 .00000E+00 0.000E+00 0.000E+00 0.000E+00 0.000E+00 0.000E+00    11.122     0.161
BIGSUB   3        0    4.13769E+01    43.468     4.080    40.936    38.139   126.585    69.509     8.444   114.380   146.948    33.426     0.394     0.048     0.000     0.000     0.040    18.420     0.020     0.011 .00000E+00 0.000E+00 0.000E+00 0.000E+00 0.000E+00 0.000E+00    65.537     0.149
BIGSUB   1        0    5.24803E+01     8.659     0.040    79.771    30.403    97.187     0.003     0.008     0.000    36.711     0.000     0.000     0.000     0.000     0.000     0.000     1.874     0.007     0.000 .00000E+00 0.000E+00 0.000E+00 0.000E+00 0.000E+00 0.000E+00     0.021     0.000
BIGSUB   2        0    5.14730E+01    17.293     1.308    75.423    45.408   103.229     1.700     0.021     0.000    60.734     0.057     0.000     0.000     0.000     0.000     0.000     4.814     0.011     0.000 .00000E+00 0.000E+00 0.000E+00 0.000E+00 0.000E+00 0.000E+00     6.387     0.002
BIGSUB   3        0    5.13769E+01    15.704     0.457    76.574    60.565   112.198    17.783     0.230    84.873   101.709     0.816     0.000     0.000     0.000     0.000     0.000    11.175     0.012     0.006 .00000E+00 0.000E+00 0.000E+00 0.000E+00 0.000E+00 0.000E+00    37.185     0.001
BIGSUB   1        0    6.24803E+01     9.118     0.415    61.863    18.411    89.505     0.000     0.000     0.000    27.611     0.000     0.000     0.000     0.000     0.000     0.000     0.670     0.003     0.000 .00000E+00 0.000E+00 0.000E+00 0.000E+00 0.000E+00 0.000E+00     0.008     0.000
BIGSUB   2        0    6.14730E+01    18.468     5.574    58.545    30.385    98.616     0.000     0.000     0.000    45.753     0.000     0.000     0.000     0.000     0.000     0.000     1.791     0.004     0.000 .00000E+00 0.000E+00 0.000E+00 0.000E+00 0.000E+00 0.000E+00     1.975     0.010
BIGSUB   3        0    6.13769E+01    16.721     3.216    59.478    43.906   108.822     0.097     0.000    45.645    54.566     0.000     0.000     0.000     0.000     0.000     0.000     4.519     0.005     0.002 .00000E+00 0.000E+00 0.000E+00 0.000E+00 0.000E+00 0.000E+00    12.149     0.012
BIGSUB   1        0    7.24803E+01     7.814     1.574    61.688    15.028    83.851     0.000     0.000     0.000    21.605     0.000     0.000     0.000     0.000     0.000     0.000     0.272     0.001     0.000 .00000E+00 0.000E+00 0.000E+00 0.000E+00 0.000E+00 0.000E+00     0.013     0.000
BIGSUB   2        0    7.14730E+01    17.362    10.029    58.135    29.134    95.023     0.000     0.000     0.000    35.835     0.000     0.000     0.000     0.000     0.000     0.000     0.767     0.001     0.000 .00000E+00 0.000E+00 0.000E+00 0.000E+00 0.000E+00 0.000E+00     3.100     0.015
BIGSUB   3        0    7.13769E+01    15.535     7.431    59.052    44.038   109.965     1.362     0.001    17.486    23.020     0.004     0.000     0.000     0.000     0.000     0.000     1.970     0.002     0.000 .00000E+00 0.000E+00 0.000E+00 0.000E+00 0.000E+00 0.000E+00    20.227     0.018
BIGSUB   1        0    8.24803E+01    14.255     1.150    50.373    15.843    83.441     0.000     0.000     0.000    16.081     0.000     0.000     0.000     0.000     0.000     0.000     0.130     0.000     0.000 .00000E+00 0.000E+00 0.000E+00 0.000E+00 0.000E+00 0.000E+00     0.033     0.000
BIGSUB   2        0    8.14730E+01    26.085    10.696    47.430    29.214   101.187     1.429     0.002     0.000    26.831     0.011     0.000     0.000     0.000     0.000     0.000     0.507     0.001     0.000 .00000E+00 0.000E+00 0.000E+00 0.000E+00 0.000E+00 0.000E+00     7.684     0.022
BIGSUB   3        0    8.13769E+01    23.941     7.506    48.210    38.233   116.273    30.306     0.363     7.654    13.715     1.330     0.000     0.000     0.000     0.000     0.000     2.955     0.007     0.000 .00000E+00 0.000E+00 0.000E+00 0.000E+00 0.000E+00 0.000E+00    48.839     0.030
BIGSUB   1        0    9.24803E+01    14.046     0.069    42.548    16.233    82.329     0.000     0.000     0.000    11.583     0.000     0.000     0.000     0.000     0.000     0.000     0.099     0.000     0.000 .00000E+00 0.000E+00 0.000E+00 0.000E+00 0.000E+00 0.000E+00     0.064     0.000
BIGSUB   2        0    9.14730E+01    26.174     2.140    40.223    27.835   105.535    12.187     0.108     0.000    21.006     0.401     0.003     0.000     0.000     0.000     0.000     1.356     0.005     0.000 .00000E+00 0.000E+00 0.000E+00 0.000E+00 0.000E+00 0.000E+00    18.209     0.003
BIGSUB   3        0    9.13769E+01    23.951     0.820    40.924    33.828   124.132    73.090     9.809    22.619    42.358    22.715     0.003     0.001     0.000     0.000     0.000     7.630     0.021     0.004 .00000E+00 0.000E+00 0.000E+00 0.000E+00 0.000E+00 0.000E+00   108.172     0.002
BIGSUB   1        0   10.24803E+01    80.903     2.501    24.592    21.327   122.960     9.645     7.037     0.000    16.708    20.146     1.274     0.156     0.001     0.000     0.128     0.835     0.003     0.000 .00000E+00 0.000E+00 0.000E+00 0.000E+00 0.000E+00 0.000E+00     0.069     0.001
BIGSUB   2        0   10.14730E+01    94.433    24.519    21.406    20.364   127.263    48.509    11.417     0.000    33.723    50.521     1.026     0.126     0.000     0.000     0.105     4.496     0.020     0.000 .00000E+00 0.000E+00 0.000E+00 0.000E+00 0.000E+00 0.000E+00    16.493     0.290
BIGSUB   3        0   10.13769E+01    92.115    17.183    23.109    22.272   137.886   106.385    34.055    50.350   100.865   107.985     0.258     0.032     0.000     0.000     0.027    13.933     0.033     0.013 .00000E+00 0.000E+00 0.000E+00 0.000E+00 0.000E+00 0.000E+00   102.179     0.413
BIGSUB   1        0   11.24803E+01    54.620     1.025    21.791    19.795   123.548    23.944     7.335     0.000    17.433    29.338     1.490     0.182     0.000     0.000     0.149     2.222     0.015     0.000 .00000E+00 0.000E+00 0.000E+00 0.000E+00 0.000E+00 0.000E+00     0.089     0.000
BIGSUB   2        0   11.14730E+01    66.875    16.948    19.674    18.914   128.968    51.188     7.932     0.000    36.797    32.632     0.461     0.056     0.000     0.000     0.047     7.840     0.037     0.000 .00000E+00 0.000E+00 0.000E+00 0.000E+00 0.000E+00 0.000E+00    21.517     0.065
BIGSUB   3        0   11.13769E+01    64.770     9.807    20.335    19.732   138.566   120.635    39.481    76.965   137.808   109.529     0.161     0.020     0.000     0.000     0.017    18.411     0.037     0.019 .00000E+00 0.000E+00 0.000E+00 0.000E+00 0.000E+00 0.000E+00   135.396     0.077
BIGSUB   1        0   12.24803E+01    91.036     0.700    19.902    17.883   133.479    47.166     9.420     0.000    24.249    32.608     1.224     0.150     0.001     0.000     0.123     3.888     0.028     0.000 .00000E+00 0.000E+00 0.000E+00 0.000E+00 0.000E+00 0.000E+00     0.109     0.000
BIGSUB   2        0   12.14730E+01   102.791    17.282    17.706    16.334   138.972    77.694    14.947     0.000    54.323    45.940     0.442     0.054     0.000     0.000     0.046    10.612     0.044     0.000 .00000E+00 0.000E+00 0.000E+00 0.000E+00 0.000E+00 0.000E+00    30.292     0.007
BIGSUB   3        0   12.13769E+01   100.803     8.334    18.072    17.129   145.445   154.209    76.028   103.471   206.245   175.586     0.110     0.013     0.000     0.000     0.011    22.992     0.036     0.020 .00000E+00 0.000E+00 0.000E+00 0.000E+00 0.000E+00 0.000E+00   180.777     0.007
BIGSUB   1        0 1992.24803E+01   615.765    11.425   490.367   263.516   133.479   263.036    59.286     0.000   356.429   225.407    30.191     3.696     0.003     0.002     2.958    36.936     0.195     0.000 .00000E+00 0.000E+00 0.000E+00 0.000E+00 0.000E+00 0.000E+00     0.677     0.006
BIGSUB   2        0 1992.14730E+01   755.726   135.314   457.039   327.843   138.972   461.009    86.187     0.000   627.936   364.304    30.717     3.760     0.002     0.001     3.006    86.187     0.277     0.000 .00000E+00 0.000E+00 0.000E+00 0.000E+00 0.000E+00 0.000E+00   179.412     1.214
BIGSUB   3        0 1992.13769E+01   731.164    81.499   467.029   394.705   145.445   981.795   325.942   912.573  1466.308   971.304    30.575     3.745     0.001     0.002     2.989   179.020     0.262     0.119 .00000E+00 0.000E+00 0.000E+00 0.000E+00 0.000E+00 0.000E+00  1086.945     1.775
BIGSUB   1        0    1.24803E+01   277.883     4.359    14.536    14.260   152.408   139.595    85.669     0.000   115.957   210.804    30.434     3.725     0.000     0.003     2.965    10.065     0.059     0.000 .00000E+00 0.000E+00 0.000E+00 0.000E+00 0.000E+00 0.000E+00     0.080     0.002
BIGSUB   2        0    1.14730E+01   291.926    50.933     8.136     7.324   154.159   158.692    89.619     0.000   148.549   332.099    30.989     3.792     0.000     0.002     3.023    18.035     0.061     0.000 .00000E+00 0.000E+00 0.000E+00 0.000E+00 0.000E+00 0.000E+00    18.195     0.762
BIGSUB   3        0    1.13769E+01   289.804    30.447     9.743     8.961   156.695   196.912   149.689   130.028   313.864   545.096    30.282     3.706     0.000     0.002     2.955    29.499     0.041     0.019 .00000E+00 0.000E+00 0.000E+00 0.000E+00 0.000E+00 0.000E+00   116.730     0.778
BIGSUB   1        0    2.24803E+01   326.190     7.183    14.296    13.286   140.456   161.879   142.844     0.000   201.183   547.654     1.931     0.236     0.000     0.003     0.202    18.281     0.041     0.000 .00000E+00 0.000E+00 0.000E+00 0.000E+00 0.000E+00 0.000E+00     0.053     0.011
BIGSUB   2        0    2.14730E+01   338.873    97.814     2.949     1.626   146.734   190.826   128.156     0.000   215.178   647.142     0.240     0.031     0.000     0.001     0.038    28.179     0.039     0.000 .00000E+00 0.000E+00 0.000E+00 0.000E+00 0.000E+00 0.000E+00    10.694     7.846
BIGSUB   3        0    2.13769E+01   337.040    52.415     4.493     3.054   148.729   198.539   171.088   150.672   361.816   797.859     0.063     0.009     0.000     0.000     0.013    34.814     0.026     0.018 .00000E+00 0.000E+00 0.000E+00 0.000E+00 0.000E+00 0.000E+00    71.184     7.241
BIGSUB   1        0    3.24803E+01   186.233     6.395    27.811    25.159   124.734   122.349    39.397     0.000   128.475    82.978     0.211     0.026     0.000     0.001     0.023    18.666     0.021     0.000 .00000E+00 0.000E+00 0.000E+00 0.000E+00 0.000E+00 0.000E+00     0.040     0.015
BIGSUB   2        0    3.14730E+01   199.644    86.845    10.212     6.944   131.424   162.840    43.956     0.000   168.460   146.235     0.010     0.002     0.000     0.000     0.002    31.609     0.023     0.000 .00000E+00 0.000E+00 0.000E+00 0.000E+00 0.000E+00 0.000E+00     8.343     5.276
BIGSUB   3        0    3.13769E+01   197.511    44.063    19.026    16.660   132.021   165.050    55.582   182.178   280.271   191.844     0.013     0.002     0.000     0.000     0.002    35.657     0.016     0.014 .00000E+00 0.000E+00 0.000E+00 0.000E+00 0.000E+00 0.000E+00    53.791     5.981
BIGSUB   1        0    4.24803E+01   100.656     0.586    37.756    36.623   121.391    52.717     8.158     0.000   100.828    17.012     0.040     0.005     0.000     0.000     0.004    12.393     0.012     0.000 .00000E+00 0.000E+00 0.000E+00 0.000E+00 0.000E+00 0.000E+00     0.030     0.000
BIGSUB   2        0    4.14730E+01   114.526    15.916    31.702    30.930   123.678    79.660    11.114     0.000   140.382    31.724     0.002     0.000     0.000     0.000     0.000    23.347     0.015     0.000 .00000E+00 0.000E+00 0.000E+00 0.000E+00 0.000E+00 0.000E+00     7.726     0.142
BIGSUB   3        0    4.13769E+01   112.226     6.079    36.261    35.452   127.349    97.676    18.503   156.494   208.357    51.232     0.003     0.000     0.000     0.000     0.000    26.335     0.013     0.010 .00000E+00 0.000E+00 0.000E+00 0.000E+00 0.000E+00 0.000E+00    47.063     0.124
BIGSUB   1        0    5.24803E+01    25.987     0.964    46.458    33.988   110.903     2.801     0.065     0.000    87.337     0.152     0.000     0.000     0.000     0.000     0.000     6.667     0.006     0.000 .00000E+00 0.000E+00 0.000E+00 0.000E+00 0.000E+00 0.000E+00     0.018     0.000
BIGSUB   2        0    5.14730E+01    38.369    10.607    43.821    39.939   116.675    11.286     0.189     0.000   121.188     0.602     0.000     0.000     0.000     0.000     0.000    13.098     0.010     0.000 .00000E+00 0.000E+00 0.000E+00 0.000E+00 0.000E+00 0.000E+00     4.663     0.062
BIGSUB   3        0    5.13769E+01    36.157     6.283    44.599    41.927   120.023    32.589     0.462   121.492   145.815     1.228     0.000     0.000     0.000     0.000     0.000    16.932     0.011     0.007 .00000E+00 0.000E+00 0.000E+00 0.000E+00 0.000E+00 0.000E+00    28.988     0.086
BIGSUB   1        0    6.24803E+01     9.154     1.221    64.062    24.467    97.138     0.000     0.000     0.000    67.965     0.000     0.000     0.000     0.000     0.000     0.000     2.377     0.002     0.000 .00000E+00 0.000E+00 0.000E+00 0.000E+00 0.000E+00 0.000E+00     0.008     0.000
BIGSUB   2        0    6.14730E+01    18.568    10.614    60.544    37.610   104.699     0.127     0.000     0.000    93.912     0.000     0.000     0.000     0.000     0.000     0.000     4.937     0.004     0.000 .00000E+00 0.000E+00 0.000E+00 0.000E+00 0.000E+00 0.000E+00     1.821     0.021
BIGSUB   3        0    6.13769E+01    16.821     7.574    61.527    48.323   110.705     1.269     0.000    68.832    81.697     0.000     0.000     0.000     0.000     0.000     0.000     7.110     0.005     0.003 .00000E+00 0.000E+00 0.000E+00 0.000E+00 0.000E+00 0.000E+00    11.512     0.031
BIGSUB   1        0    7.24803E+01     8.980     0.821    68.019    20.125    87.773     0.000     0.000     0.000    53.984     0.000     0.000     0.000     0.000     0.000     0.000     0.903     0.001     0.000 .00000E+00 0.000E+00 0.000E+00 0.000E+00 0.000E+00 0.000E+00     0.013     0.000
BIGSUB   2        0    7.14730E+01    18.466     8.353    64.325    34.528    97.587     0.000     0.000     0.000    74.409     0.000     0.000     0.000     0.000     0.000     0.000     1.937     0.001     0.000 .00000E+00 0.000E+00 0.000E+00 0.000E+00 0.000E+00 0.000E+00     3.235     0.014
BIGSUB   3        0    7.13769E+01    16.718     5.576    65.354    49.076   110.685     0.150     0.000    33.273    40.876     0.000     0.000     0.000     0.000     0.000     0.000     2.886     0.002     0.001 .00000E+00 0.000E+00 0.000E+00 0.000E+00 0.000E+00 0.000E+00    20.125     0.018
BIGSUB   1        0    8.24803E+01    12.452     1.080    54.514    17.409    84.242     0.000     0.000     0.000    40.457     0.000     0.000     0.000     0.000     0.000     0.000     0.350     0.000     0.000 .00000E+00 0.000E+00 0.000E+00 0.000E+00 0.000E+00 0.000E+00     0.033     0.000
BIGSUB   2        0    8.14730E+01    23.801    10.870    51.518    32.329    99.847     0.817     0.000     0.000    55.869     0.000     0.000     0.000     0.000     0.000     0.000     0.933     0.001     0.000 .00000E+00 0.000E+00 0.000E+00 0.000E+00 0.000E+00 0.000E+00     8.009     0.021
BIGSUB   3        0    8.13769E+01    21.735     7.004    52.384    41.796   115.256    29.138     0.122    15.914    22.880     0.305     0.000     0.000     0.000     0.000     0.000     3.212     0.006     0.000 .00000E+00 0.000E+00 0.000E+00 0.000E+00 0.000E+00 0.000E+00    50.523     0.029
BIGSUB   1        0    9.24803E+01    27.104     0.564    37.967    18.303    93.752     0.000     0.000     0.000    29.208     0.000     0.000     0.000     0.000     0.000     0.000     0.188     0.000     0.000 .00000E+00 0.000E+00 0.000E+00 0.000E+00 0.000E+00 0.000E+00     0.053     0.000
BIGSUB   2        0    9.14730E+01    39.859     7.098    35.803    26.810   114.464    11.761     0.201     0.000    41.601     0.642     0.000     0.000     0.000     0.000     0.000     1.267     0.003     0.000 .00000E+00 0.000E+00 0.000E+00 0.000E+00 0.000E+00 0.000E+00    13.947     0.016
BIGSUB   3        0    9.13769E+01    37.647     4.110    36.444    31.221   128.049    63.526     7.884    21.810    39.267    21.540     0.001     0.000     0.000     0.000     0.000     6.666     0.016     0.003 .00000E+00 0.000E+00 0.000E+00 0.000E+00 0.000E+00 0.000E+00    84.385     0.018
BIGSUB   1        0   10.24803E+01   120.640     3.403    29.491    27.254   130.683    41.940     7.773     0.000    32.504    22.267     0.036     0.004     0.000     0.000     0.004     2.026     0.007     0.000 .00000E+00 0.000E+00 0.000E+00 0.000E+00 0.000E+00 0.000E+00     0.063     0.003
BIGSUB   2        0   10.14730E+01   134.526    36.952    22.005    20.979   135.273    80.292    11.121     0.000    52.355    37.540     0.002     0.000     0.000     0.000     0.000     6.759     0.024     0.000 .00000E+00 0.000E+00 0.000E+00 0.000E+00 0.000E+00 0.000E+00    14.589     0.674
BIGSUB   3        0   10.13769E+01   132.246    22.262    25.542    24.390   139.937   128.519    37.585    48.691   104.144    87.060     0.007     0.001     0.000     0.000     0.001    14.919     0.034     0.011 .00000E+00 0.000E+00 0.000E+00 0.000E+00 0.000E+00 0.000E+00    92.803     0.877
BIGSUB   1        0   11.24803E+01   204.184     8.603    18.487    17.140   145.633   115.941    35.843     0.000    70.806    95.788     0.169     0.021     0.000     0.000     0.016     9.259     0.036     0.000 .00000E+00 0.000E+00 0.000E+00 0.000E+00 0.000E+00 0.000E+00     0.063     0.004
BIGSUB   2        0   11.14730E+01   217.160    52.230     9.747     7.993   140.969   130.666    28.068     0.000    85.195    97.015     0.006     0.001     0.000     0.000     0.001    16.565     0.051     0.000 .00000E+00 0.000E+00 0.000E+00 0.000E+00 0.000E+00 0.000E+00    12.491     0.765
BIGSUB   3        0   11.13769E+01   215.124    39.017    13.647    12.486   143.495   160.987    62.575    89.715   179.836   199.960     0.013     0.002     0.000     0.000     0.001    24.089     0.044     0.021 .00000E+00 0.000E+00 0.000E+00 0.000E+00 0.000E+00 0.000E+00    80.860     1.027
BIGSUB   1        0   12.24803E+01   242.039     4.797    11.716    11.158   146.289   164.162    49.272     0.000   109.591   130.055     0.304     0.037     0.000     0.001     0.026    16.153     0.044     0.000 .00000E+00 0.000E+00 0.000E+00 0.000E+00 0.000E+00 0.000E+00     0.076     0.001
BIGSUB   2        0   12.14730E+01   256.510    62.466     1.798     1.020   148.267   186.407    74.177     0.000   160.255   290.429     0.016     0.002     0.000     0.000     0.001    25.133     0.051     0.000 .00000E+00 0.000E+00 0.000E+00 0.000E+00 0.000E+00 0.000E+00    16.754     0.222
BIGSUB   3        0   12.13769E+01   254.272    38.060     6.735     5.887   151.590   209.968   126.121   133.199   296.050   428.389     0.025     0.003     0.000     0.000     0.002    32.130     0.037     0.023 .00000E+00 0.000E+00 0.000E+00 0.000E+00 0.000E+00 0.000E+00   109.248     0.294
BIGSUB   1        0 1993.24803E+01  1541.501    39.977   425.114   259.172   146.289   801.385   369.021     0.000  1038.295  1106.709    33.125     4.053     0.001     0.008     3.240    97.328     0.231     0.000 .00000E+00 0.000E+00 0.000E+00 0.000E+00 0.000E+00 0.000E+00     0.529     0.035
BIGSUB   2        0 1993.14730E+01  1692.226   450.697   342.559   248.032   148.267  1013.375   386.603     0.000  1357.353  1583.428    31.265     3.828     0.000     0.003     3.066   171.800     0.282     0.000 .00000E+00 0.000E+00 0.000E+00 0.000E+00 0.000E+00 0.000E+00   120.467    15.821
BIGSUB   3        0 1993.13769E+01  1667.302   262.888   375.755   319.234   151.590  1284.322   629.609  1152.299  2074.873  2324.514    30.408     3.723     0.001     0.003     2.974   234.249     0.250     0.131 .00000E+00 0.000E+00 0.000E+00 0.000E+00 0.000E+00 0.000E+00   767.212    16.503
BIGSUB   1        0    1.24803E+01   302.753     1.748    17.990    17.497   154.296   169.463    83.634     0.000   172.361   229.063    27.492     3.363     0.000     0.002     2.676    20.060     0.035     0.000 .00000E+00 0.000E+00 0.000E+00 0.000E+00 0.000E+00 0.000E+00     0.080     0.001
BIGSUB   2        0    1.14730E+01   316.826    37.508     4.790     3.028   151.859   193.514    85.166     0.000   202.798   249.041    29.618     3.624     0.000     0.002     2.893    31.201     0.037     0.000 .00000E+00 0.000E+00 0.000E+00 0.000E+00 0.000E+00 0.000E+00    19.594     0.555
BIGSUB   3        0    1.13769E+01   314.729    21.113    14.667    14.178   154.734   214.334   149.203   168.383   360.871   454.932    29.918     3.661     0.000     0.002     2.922    37.439     0.024     0.020 .00000E+00 0.000E+00 0.000E+00 0.000E+00 0.000E+00 0.000E+00   121.563     0.694
BIGSUB   1        0    2.24803E+01   393.012     9.856     6.852     6.014   147.049   214.142   154.214     0.000   261.868   373.583     2.060     0.252     0.000     0.002     0.211    23.046     0.019     0.000 .00000E+00 0.000E+00 0.000E+00 0.000E+00 0.000E+00 0.000E+00     0.050     0.029
BIGSUB   2        0    2.14730E+01   406.257   113.998     2.350     1.329   152.804   216.607   166.788     0.000   300.438   618.317     0.699     0.086     0.000     0.000     0.080    33.203     0.020     0.000 .00000E+00 0.000E+00 0.000E+00 0.000E+00 0.000E+00 0.000E+00     9.962    11.187
BIGSUB   3        0    2.13769E+01   404.411    69.721     4.946     3.960   152.442   225.373   202.540   173.364   420.410   685.573     0.133     0.019     0.000     0.000     0.020    38.178     0.014     0.013 .00000E+00 0.000E+00 0.000E+00 0.000E+00 0.000E+00 0.000E+00    64.957    13.562
BIGSUB   1        0    3.24803E+01   173.632     2.241    36.168    33.085   134.426   115.783    22.868     0.000   162.557    57.251     0.128     0.016     0.000     0.000     0.012    22.331     0.011     0.000 .00000E+00 0.000E+00 0.000E+00 0.000E+00 0.000E+00 0.000E+00     0.042     0.002
BIGSUB   2        0    3.14730E+01   186.657    43.723    14.438     9.713   140.612   152.037    31.090     0.000   200.420   116.239     0.010     0.001     0.000     0.000     0.001    34.760     0.012     0.000 .00000E+00 0.000E+00 0.000E+00 0.000E+00 0.000E+00 0.000E+00     9.770     1.335
BIGSUB   3        0    3.13769E+01   184.591    21.315    31.759    30.123   140.221   156.130    46.981   201.839   295.221   161.094     0.011     0.002     0.000     0.000     0.001    38.402     0.010     0.009 .00000E+00 0.000E+00 0.000E+00 0.000E+00 0.000E+00 0.000E+00    61.295     1.070
BIGSUB   1        0    4.24803E+01   135.120     1.045    47.792    44.172   123.333    79.656    12.758     0.000   148.846    26.058     0.060     0.007     0.000     0.000     0.006    15.925     0.010     0.000 .00000E+00 0.000E+00 0.000E+00 0.000E+00 0.000E+00 0.000E+00     0.031     0.001
BIGSUB   2        0    4.14730E+01   148.444    18.325    43.757    42.148   125.557    98.539    17.080     0.000   182.486    52.944     0.004     0.001     0.000     0.000     0.000    26.185     0.011     0.000 .00000E+00 0.000E+00 0.000E+00 0.000E+00 0.000E+00 0.000E+00     8.178     0.380
BIGSUB   3        0    4.13769E+01   146.260     8.465    45.882    44.478   129.856   118.695    28.250   169.864   235.657    74.227     0.005     0.001     0.000     0.000     0.000    29.547     0.012     0.009 .00000E+00 0.000E+00 0.000E+00 0.000E+00 0.000E+00 0.000E+00    49.589     0.393
BIGSUB   1        0    5.24803E+01    24.506     0.060    75.224    41.974   102.143     4.546     0.015     0.000   125.309     0.035     0.000     0.000     0.000     0.000     0.000     8.672     0.006     0.000 .00000E+00 0.000E+00 0.000E+00 0.000E+00 0.000E+00 0.000E+00     0.019     0.000
BIGSUB   2        0    5.14730E+01    34.161     2.099    71.014    50.380   105.451    13.029     0.093     0.000   151.936     0.289     0.000     0.000     0.000     0.000     0.000    14.990     0.008     0.000 .00000E+00 0.000E+00 0.000E+00 0.000E+00 0.000E+00 0.000E+00     5.497     0.005
BIGSUB   3        0    5.13769E+01    32.428     0.474    72.162    60.710   112.198    29.736     0.615   134.630   162.086     1.317     0.000     0.000     0.000     0.000     0.000    18.985     0.010     0.008 .00000E+00 0.000E+00 0.000E+00 0.000E+00 0.000E+00 0.000E+00    32.525     0.001
BIGSUB   1        0    6.24803E+01     9.252     0.849    72.295    22.013    91.212     0.000     0.000     0.000    96.802     0.000     0.000     0.000     0.000     0.000     0.000     3.079     0.002     0.000 .00000E+00 0.000E+00 0.000E+00 0.000E+00 0.000E+00 0.000E+00     0.008     0.000
BIGSUB   2        0    6.14730E+01    17.893     8.829    68.235    33.253    98.190     0.000     0.000     0.000   116.707     0.000     0.000     0.000     0.000     0.000     0.000     5.480     0.003     0.000 .00000E+00 0.000E+00 0.000E+00 0.000E+00 0.000E+00 0.000E+00     1.838     0.017
BIGSUB   3        0    6.13769E+01    16.304     6.230    69.333    48.526   105.264     0.000     0.000    74.032    87.819     0.000     0.000     0.000     0.000     0.000     0.000     7.320     0.004     0.002 .00000E+00 0.000E+00 0.000E+00 0.000E+00 0.000E+00 0.000E+00    11.413     0.023
BIGSUB   1        0    7.24803E+01     5.499     0.615    71.630    15.621    82.968     0.000     0.000     0.000    76.618     0.000     0.000     0.000     0.000     0.000     0.000     1.156     0.001     0.000 .00000E+00 0.000E+00 0.000E+00 0.000E+00 0.000E+00 0.000E+00     0.014     0.000
BIGSUB   2        0    7.14730E+01    14.480     6.004    67.731    31.040    91.390     0.000     0.000     0.000    92.112     0.000     0.000     0.000     0.000     0.000     0.000     2.109     0.001     0.000 .00000E+00 0.000E+00 0.000E+00 0.000E+00 0.000E+00 0.000E+00     3.663     0.008
BIGSUB   3        0    7.13769E+01    12.732     4.030    68.754    47.704   105.963     0.000     0.000    32.170    40.352     0.000     0.000     0.000     0.000     0.000     0.000     2.916     0.002     0.000 .00000E+00 0.000E+00 0.000E+00 0.000E+00 0.000E+00 0.000E+00    22.538     0.010
BIGSUB   1        0    8.24803E+01    14.346     0.509    63.166    16.662    82.221     0.000     0.000     0.000    57.334     0.000     0.000     0.000     0.000     0.000     0.000     0.453     0.000     0.000 .00000E+00 0.000E+00 0.000E+00 0.000E+00 0.000E+00 0.000E+00     0.037     0.000
BIGSUB   2        0    8.14730E+01    24.446     6.684    59.677    30.648    99.282     0.394     0.000     0.000    68.948     0.000     0.000     0.000     0.000     0.000     0.000     0.947     0.001     0.000 .00000E+00 0.000E+00 0.000E+00 0.000E+00 0.000E+00 0.000E+00    10.169     0.023
BIGSUB   3        0    8.13769E+01    22.546     3.902    60.620    45.496   118.062    29.614     1.065     8.029    16.127     2.856     0.000     0.000     0.000     0.000     0.000     3.015     0.005     0.000 .00000E+00 0.000E+00 0.000E+00 0.000E+00 0.000E+00 0.000E+00    61.278     0.031
BIGSUB   1        0    9.24803E+01    39.185     0.225    46.320    21.664    96.136     0.000     4.261     0.000    45.614    25.267     0.018     0.002     0.001     0.000     0.002     0.245     0.000     0.000 .00000E+00 0.000E+00 0.000E+00 0.000E+00 0.000E+00 0.000E+00     0.060     0.000
BIGSUB   2        0    9.14730E+01    50.412     5.975    43.353    30.756   114.978    14.912     5.818     0.000    57.116    53.491     0.001     0.000     0.000     0.000     0.000     1.634     0.004     0.000 .00000E+00 0.000E+00 0.000E+00 0.000E+00 0.000E+00 0.000E+00    17.599     0.128
BIGSUB   3        0    9.13769E+01    48.452     2.467    44.532    37.477   128.074    77.566    18.190    22.928    52.548    61.181     0.002     0.000     0.000     0.000     0.000     8.206     0.020     0.003 .00000E+00 0.000E+00 0.000E+00 0.000E+00 0.000E+00 0.000E+00   102.952     0.134
BIGSUB   1        0   10.24803E+01    51.299     1.498    40.823    29.847   115.391     0.171     1.694     0.000    33.860     6.735     0.007     0.001     0.001     0.000     0.001     0.636     0.001     0.000 .00000E+00 0.000E+00 0.000E+00 0.000E+00 0.000E+00 0.000E+00     0.073     0.001
BIGSUB   2        0   10.14730E+01    62.996    19.738    37.146    33.309   121.488    33.141     2.949     0.000    48.161    11.666     0.000     0.000     0.001     0.000     0.000     4.268     0.013     0.000 .00000E+00 0.000E+00 0.000E+00 0.000E+00 0.000E+00 0.000E+00    18.216     0.198
BIGSUB   3        0   10.13769E+01    60.969    11.764    38.305    35.481   131.755    99.648    21.196    52.178    90.863    61.811     0.004     0.001     0.000     0.000     0.000    14.225     0.028     0.012 .00000E+00 0.000E+00 0.000E+00 0.000E+00 0.000E+00 0.000E+00   113.474     0.267
BIGSUB   1        0   11.24803E+01   106.340     2.277    24.499    21.256   129.936    45.051    19.226     0.000    47.662    70.055     0.084     0.010     0.001     0.000     0.008     3.597     0.016     0.000 .00000E+00 0.000E+00 0.000E+00 0.000E+00 0.000E+00 0.000E+00     0.081     0.001
BIGSUB   2        0   11.14730E+01   118.191    27.320    19.606    17.741   132.707    73.541    18.742     0.000    66.227    58.964     0.003     0.000     0.000     0.000     0.000     9.668     0.033     0.000 .00000E+00 0.000E+00 0.000E+00 0.000E+00 0.000E+00 0.000E+00    19.132     0.388
BIGSUB   3        0   11.13769E+01   116.218    17.905    21.425    20.209   141.486   129.027    52.414    78.538   153.854   123.832     0.008     0.001     0.000     0.000     0.001    19.409     0.034     0.017 .00000E+00 0.000E+00 0.000E+00 0.000E+00 0.000E+00 0.000E+00   119.406     0.460
BIGSUB   1        0   12.24803E+01   169.721     1.183    14.257    13.898   147.504    90.315    35.276     0.000    69.716    72.889     0.142     0.018     0.000     0.000     0.013     6.680     0.027     0.000 .00000E+00 0.000E+00 0.000E+00 0.000E+00 0.000E+00 0.000E+00     0.093     0.000
BIGSUB   2        0   12.14730E+01   184.110    25.718    10.957    10.213   149.267   114.941    43.940     0.000   103.017   151.856     0.006     0.001     0.000     0.000     0.001    14.057     0.040     0.000 .00000E+00 0.000E+00 0.000E+00 0.000E+00 0.000E+00 0.000E+00    23.819     0.035
BIGSUB   3        0   12.13769E+01   181.800    13.616    12.406    11.756   152.734   172.142   100.562   107.877   237.570   284.521     0.016     0.002     0.000     0.000     0.001    24.895     0.034     0.019 .00000E+00 0.000E+00 0.000E+00 0.000E+00 0.000E+00 0.000E+00   144.120     0.030
BIGSUB   1        0 1994.24803E+01  1424.664    22.105   517.018   283.703   147.504   719.127   333.946     0.000  1298.547   860.938    29.991     3.670     0.003     0.006     2.929   105.881     0.129     0.000 .00000E+00 0.000E+00 0.000E+00 0.000E+00 0.000E+00 0.000E+00     0.587     0.036
BIGSUB   2        0 1994.14730E+01  1564.873   315.919   443.053   293.558   149.267   910.653   371.666     0.000  1590.366  1312.806    30.342     3.714     0.001     0.002     2.975   178.501     0.183     0.000 .00000E+00 0.000E+00 0.000E+00 0.000E+00 0.000E+00 0.000E+00   147.436    14.258
BIGSUB   3        0 1994.13769E+01  1541.438   181.002   484.790   400.099   152.734  1252.265   621.014  1223.833  2153.378  1911.343    30.097     3.686     0.001     0.003     2.946   242.537     0.197     0.114 .00000E+00 0.000E+00 0.000E+00 0.000E+00 0.000E+00 0.000E+00   905.111    16.674
BIGSUB   1        0    1.24803E+01   211.760     0.273    19.519    18.723   137.138   129.660    57.266     0.000   109.421   140.161    26.242     3.210     0.000     0.002     2.555    12.826     0.038     0.000 .00000E+00 0.000E+00 0.000E+00 0.000E+00 0.000E+00 0.000E+00     0.100     0.000
BIGSUB   2        0    1.14730E+01   225.241    12.941    17.225    16.629   140.023   149.748    72.618     0.000   153.075   227.061    29.765     3.641     0.000     0.001     2.910    21.731     0.040     0.000 .00000E+00 0.000E+00 0.000E+00 0.000E+00 0.000E+00 0.000E+00    27.745     0.069
BIGSUB   3        0    1.13769E+01   223.133     3.843    18.227    17.718   147.325   196.570   143.326   140.044   320.519   406.357    29.725     3.636     0.000     0.002     2.903    31.991     0.030     0.018 .00000E+00 0.000E+00 0.000E+00 0.000E+00 0.000E+00 0.000E+00   164.257     0.038
BIGSUB   1        0    2.24803E+01   154.471     1.693    23.970    22.895   133.348    90.908    32.906     0.000    96.017   101.521     1.499     0.183     0.000     0.001     0.157    12.953     0.027     0.000 .00000E+00 0.000E+00 0.000E+00 0.000E+00 0.000E+00 0.000E+00     0.066     0.002
BIGSUB   2        0    2.14730E+01   166.973    23.388    17.418    16.584   137.774   111.303    38.449     0.000   128.069   161.412     0.247     0.030     0.000     0.000     0.034    21.343     0.026     0.000 .00000E+00 0.000E+00 0.000E+00 0.000E+00 0.000E+00 0.000E+00    17.404     0.585
BIGSUB   3        0    2.13769E+01   164.968    13.487    19.346    18.623   141.078   153.057    76.761   146.558   259.101   278.008     0.095     0.012     0.000     0.000     0.016    30.267     0.020     0.014 .00000E+00 0.000E+00 0.000E+00 0.000E+00 0.000E+00 0.000E+00   104.078     0.724
BIGSUB   1        0    3.24803E+01   202.583     6.509    32.749    31.677   132.573   118.369    37.942     0.000   122.373   115.392     0.737     0.090     0.000     0.000     0.079    15.403     0.025     0.000 .00000E+00 0.000E+00 0.000E+00 0.000E+00 0.000E+00 0.000E+00     0.049     0.018
BIGSUB   2        0    3.14730E+01   217.010    39.542    27.563    26.411   134.829   138.619    42.019     0.000   156.411   149.830     0.076     0.010     0.000     0.000     0.011    24.930     0.025     0.000 .00000E+00 0.000E+00 0.000E+00 0.000E+00 0.000E+00 0.000E+00    12.685     2.536
BIGSUB   3        0    3.13769E+01   214.733    25.908    29.593    28.622   139.796   163.772    68.668   165.283   273.317   213.523     0.026     0.004     0.000     0.000     0.004    32.582     0.020     0.013 .00000E+00 0.000E+00 0.000E+00 0.000E+00 0.000E+00 0.000E+00    76.187     4.096
BIGSUB   1        0    4.24803E+01    77.378     0.022    49.807    41.435   114.146    44.268     5.231     0.000    93.106    14.163     0.043     0.005     0.000     0.000     0.004    11.598     0.016     0.000 .00000E+00 0.000E+00 0.000E+00 0.000E+00 0.000E+00 0.000E+00     0.038     0.000
BIGSUB   2        0    4.14730E+01    89.867     0.671    47.020    43.587   118.051    59.233     7.853     0.000   123.317    29.721     0.005     0.001     0.000     0.000     0.001    19.373     0.018     0.000 .00000E+00 0.000E+00 0.000E+00 0.000E+00 0.000E+00 0.000E+00    11.130     0.003
BIGSUB   3        0    4.13769E+01    87.706     0.133    47.820    45.503   124.632    94.661    17.911   149.298   200.119    58.040     0.004     0.001     0.000     0.000     0.000    26.012     0.016     0.011 .00000E+00 0.000E+00 0.000E+00 0.000E+00 0.000E+00 0.000E+00    64.498     0.000
BIGSUB   1        0    5.24803E+01    10.738     0.019    70.854    29.060    97.430     0.000     0.000     0.000    79.333     0.000     0.000     0.000     0.000     0.000     0.000     5.003     0.007     0.000 .00000E+00 0.000E+00 0.000E+00 0.000E+00 0.000E+00 0.000E+00     0.021     0.000
BIGSUB   2        0    5.14730E+01    20.168     0.921    66.798    43.052   104.110     2.496     0.000     0.000   102.669     0.000     0.000     0.000     0.000     0.000     0.000     9.035     0.008     0.000 .00000E+00 0.000E+00 0.000E+00 0.000E+00 0.000E+00 0.000E+00     6.274     0.002
BIGSUB   3        0    5.13769E+01    18.423     0.229    67.892    54.407   110.668    23.031     0.024   113.317   134.933     0.048     0.000     0.000     0.000     0.000     0.000    14.863     0.010     0.006 .00000E+00 0.000E+00 0.000E+00 0.000E+00 0.000E+00 0.000E+00    36.254     0.001
BIGSUB   1        0    6.24803E+01     4.602     0.125    85.721    18.557    85.738     0.000     0.000     0.000    60.868     0.000     0.000     0.000     0.000     0.000     0.000     1.747     0.002     0.000 .00000E+00 0.000E+00 0.000E+00 0.000E+00 0.000E+00 0.000E+00     0.009     0.000
BIGSUB   2        0    6.14730E+01    11.263     2.142    80.972    32.912    92.567     0.000     0.000     0.000    78.076     0.000     0.000     0.000     0.000     0.000     0.000     3.245     0.003     0.000 .00000E+00 0.000E+00 0.000E+00 0.000E+00 0.000E+00 0.000E+00     2.472     0.003
BIGSUB   3        0    6.13769E+01     9.991     1.089    82.220    51.203   100.740     0.000     0.000    60.949    72.343     0.000     0.000     0.000     0.000     0.000     0.000     5.896     0.004     0.002 .00000E+00 0.000E+00 0.000E+00 0.000E+00 0.000E+00 0.000E+00    14.599     0.003
BIGSUB   1        0    7.24803E+01     6.143     0.030    93.483    17.365    76.951     0.000     0.000     0.000    48.049     0.000     0.000     0.000     0.000     0.000     0.000     0.660     0.001     0.000 .00000E+00 0.000E+00 0.000E+00 0.000E+00 0.000E+00 0.000E+00     0.015     0.000
BIGSUB   2        0    7.14730E+01    12.477     0.978    88.462    32.099    85.589     0.000     0.000     0.000    61.390     0.000     0.000     0.000     0.000     0.000     0.000     1.269     0.001     0.000 .00000E+00 0.000E+00 0.000E+00 0.000E+00 0.000E+00 0.000E+00     4.541     0.002
BIGSUB   3        0    7.13769E+01    11.286     0.312    89.757    54.887   100.840     0.000     0.000    27.901    34.750     0.000     0.000     0.000     0.000     0.000     0.000     2.380     0.002     0.000 .00000E+00 0.000E+00 0.000E+00 0.000E+00 0.000E+00 0.000E+00    26.262     0.001
BIGSUB   1        0    8.24803E+01     7.134     0.000    77.069    15.910    70.233     0.000     0.000     0.000    35.891     0.000     0.000     0.000     0.000     0.000     0.000     0.247     0.000     0.000 .00000E+00 0.000E+00 0.000E+00 0.000E+00 0.000E+00 0.000E+00     0.041     0.000
BIGSUB   2        0    8.14730E+01    14.441     0.112    73.063    30.281    88.286     0.000     0.015     0.000    45.880     0.097     0.000     0.000     0.000     0.000     0.000     0.595     0.001     0.000 .00000E+00 0.000E+00 0.000E+00 0.000E+00 0.000E+00 0.000E+00    12.799     0.000
BIGSUB   3        0    8.13769E+01    13.014     0.000    74.172    52.143   110.727    29.489     1.423     6.867    14.516     6.990     0.000     0.000     0.000     0.000     0.000     2.819     0.005     0.000 .00000E+00 0.000E+00 0.000E+00 0.000E+00 0.000E+00 0.000E+00    73.147     0.000
BIGSUB   1        0    9.24803E+01    27.332     0.020    47.755    15.684    81.736     0.000     1.051     0.000    27.002     5.906     0.009     0.001     0.002     0.000     0.001     0.216     0.000     0.000 .00000E+00 0.000E+00 0.000E+00 0.000E+00 0.000E+00 0.000E+00     0.062     0.000
BIGSUB   2        0    9.14730E+01    38.026     0.929    45.062    26.976   103.605    12.097     2.403     0.000    36.641    16.680     0.002     0.000     0.000     0.000     0.000     1.296     0.003     0.000 .00000E+00 0.000E+00 0.000E+00 0.000E+00 0.000E+00 0.000E+00    18.655     0.004
BIGSUB   3        0    9.13769E+01    36.058     0.245    45.797    35.517   123.000    74.249    14.553    21.767    47.086    54.962     0.002     0.000     0.000     0.000     0.000     7.997     0.019     0.003 .00000E+00 0.000E+00 0.000E+00 0.000E+00 0.000E+00 0.000E+00   107.709     0.003
BIGSUB   1        0   10.24803E+01    57.892     0.241    34.376    20.781   115.160     0.039     3.186     0.000    23.339    11.636     0.022     0.003     0.001     0.000     0.002     0.426     0.001     0.000 .00000E+00 0.000E+00 0.000E+00 0.000E+00 0.000E+00 0.000E+00     0.080     0.000
BIGSUB   2        0   10.14730E+01    70.271     4.625    32.367    27.316   129.741    27.617     7.077     0.000    38.332    36.946     0.004     0.001     0.000     0.000     0.001     3.579     0.011     0.000 .00000E+00 0.000E+00 0.000E+00 0.000E+00 0.000E+00 0.000E+00    23.001     0.045
BIGSUB   3        0   10.13769E+01    68.092     2.257    32.941    29.774   137.680   106.718    34.874    51.751   103.882   102.467     0.006     0.001     0.000     0.000     0.001    14.349     0.028     0.013 .00000E+00 0.000E+00 0.000E+00 0.000E+00 0.000E+00 0.000E+00   134.449     0.052
BIGSUB   1        0   11.24803E+01   152.109     1.847    23.776    20.065   117.967    81.553    36.745     0.000    58.126   117.809     0.278     0.034     0.000     0.000     0.028     4.983     0.021     0.000 .00000E+00 0.000E+00 0.000E+00 0.000E+00 0.000E+00 0.000E+00     0.087     0.001
BIGSUB   2        0   11.14730E+01   164.573    34.844    17.348    15.503   124.384   116.080    39.652     0.000    79.030   130.870     0.016     0.003     0.000     0.000     0.002    11.473     0.038     0.000 .00000E+00 0.000E+00 0.000E+00 0.000E+00 0.000E+00 0.000E+00    22.112     0.528
BIGSUB   3        0   11.13769E+01   162.565    21.634    19.208    17.996   135.632   164.893    87.318    82.867   195.590   190.328     0.016     0.003     0.000     0.000     0.002    22.098     0.037     0.019 .00000E+00 0.000E+00 0.000E+00 0.000E+00 0.000E+00 0.000E+00   135.258     0.601
BIGSUB   1        0   12.24803E+01   165.247     3.761    18.155    14.072   147.646    56.223    56.131     0.000    85.856   140.352     0.255     0.032     0.000     0.000     0.024     6.236     0.024     0.000 .00000E+00 0.000E+00 0.000E+00 0.000E+00 0.000E+00 0.000E+00     0.097     0.000
BIGSUB   2        0   12.14730E+01   176.996    30.535    16.078    13.924   150.375    79.898    44.284     0.000    97.954   197.832     0.010     0.001     0.000     0.000     0.001    13.740     0.036     0.000 .00000E+00 0.000E+00 0.000E+00 0.000E+00 0.000E+00 0.000E+00    25.480     0.065
BIGSUB   3        0   12.13769E+01   175.083    23.297    16.479    14.827   153.640   154.311   101.400   118.652   250.246   339.748     0.016     0.003     0.000     0.000     0.001    25.913     0.028     0.018 .00000E+00 0.000E+00 0.000E+00 0.000E+00 0.000E+00 0.000E+00   152.988     0.094
BIGSUB   1        0 1995.24803E+01  1077.390    14.540   577.233   266.225   147.646   521.020   230.458     0.000   839.381   646.940    29.084     3.559     0.003     0.004     2.851    72.298     0.161     0.000 .00000E+00 0.000E+00 0.000E+00 0.000E+00 0.000E+00 0.000E+00     0.666     0.021
BIGSUB   2        0 1995.14730E+01  1207.306   151.628   529.375   325.274   150.375   697.091   254.371     0.000  1100.844   950.449    30.123     3.687     0.001     0.002     2.959   131.609     0.210     0.000 .00000E+00 0.000E+00 0.000E+00 0.000E+00 0.000E+00 0.000E+00   184.298     3.841
BIGSUB   3        0 1995.13769E+01  1185.051    92.436   543.452   421.220   153.640  1160.752   546.258  1085.254  1906.402  1650.471    29.890     3.659     0.001     0.003     2.928   217.168     0.219     0.117 .00000E+00 0.000E+00 0.000E+00 0.000E+00 0.000E+00 0.000E+00  1089.688     5.613
[...]
BIGSUB   3        0    4.13769E+01    57.054     6.775    43.959    39.885   124.824    57.537    16.328   128.658   170.104    74.253     0.002     0.001     0.000     0.000     0.001    18.601     0.009     0.006 .00000E+00 0.000E+00 0.000E+00 0.000E+00 0.000E+00 0.000E+00    58.948     0.449
BIGSUB   1        0    5.24803E+01    10.466     0.144    76.627    30.630    98.275     0.005     0.007     0.000    61.546     0.000     0.000     0.000     0.000     0.000     0.000     2.388     0.003     0.000 .00000E+00 0.000E+00 0.000E+00 0.000E+00 0.000E+00 0.000E+00     0.019     0.000
BIGSUB   2        0    5.14730E+01    17.745     3.780    72.408    42.981   104.381     1.406     0.003     0.000    85.062     0.001     0.000     0.000     0.000     0.000     0.000     5.375     0.004     0.000 .00000E+00 0.000E+00 0.000E+00 0.000E+00 0.000E+00 0.000E+00     5.358     0.007
BIGSUB   3        0    5.13769E+01    16.399     1.478    73.531    57.750   112.233    14.394     0.074    87.595   104.574     0.196     0.000     0.000     0.000     0.000     0.000    10.863     0.007     0.004 .00000E+00 0.000E+00 0.000E+00 0.000E+00 0.000E+00 0.000E+00    32.089     0.005
BIGSUB   1        0    6.24803E+01     3.632     0.773    85.333    18.168    85.928     0.000     0.000     0.000    45.786     0.000     0.000     0.000     0.000     0.000     0.000     0.842     0.001     0.000 .00000E+00 0.000E+00 0.000E+00 0.000E+00 0.000E+00 0.000E+00     0.008     0.000
BIGSUB   2        0    6.14730E+01     8.717     5.647    80.314    30.658    92.154     0.000     0.000     0.000    63.475     0.000     0.000     0.000     0.000     0.000     0.000     1.938     0.002     0.000 .00000E+00 0.000E+00 0.000E+00 0.000E+00 0.000E+00 0.000E+00     2.154     0.007
BIGSUB   3        0    6.13769E+01     7.762     4.069    81.562    49.615    99.910     0.070     0.000    45.072    54.157     0.000     0.000     0.000     0.000     0.000     0.000     4.273     0.003     0.001 .00000E+00 0.000E+00 0.000E+00 0.000E+00 0.000E+00 0.000E+00    13.052     0.011
BIGSUB   1        0    7.24803E+01     3.926     0.106    95.791    14.752    77.667     0.000     0.000     0.000    35.616     0.000     0.000     0.000     0.000     0.000     0.000     0.315     0.000     0.000 .00000E+00 0.000E+00 0.000E+00 0.000E+00 0.000E+00 0.000E+00     0.015     0.000
BIGSUB   2        0    7.14730E+01     9.213     2.153    90.648    29.196    84.895     0.000     0.000     0.000    49.443     0.000     0.000     0.000     0.000     0.000     0.000     0.750     0.001     0.000 .00000E+00 0.000E+00 0.000E+00 0.000E+00 0.000E+00 0.000E+00     4.301     0.002
BIGSUB   3        0    7.13769E+01     8.181     1.037    91.965    51.720    99.906     0.000     0.000    17.864    23.442     0.000     0.000     0.000     0.000     0.000     0.000     1.711     0.001     0.000 .00000E+00 0.000E+00 0.000E+00 0.000E+00 0.000E+00 0.000E+00    25.403     0.002
BIGSUB   1        0    8.24803E+01    19.927     2.731    43.184    17.346    81.113     0.000     0.000     0.000    26.472     0.000     0.000     0.000     0.000     0.000     0.000     0.180     0.000     0.000 .00000E+00 0.000E+00 0.000E+00 0.000E+00 0.000E+00 0.000E+00     0.033     0.001
BIGSUB   2        0    8.14730E+01    32.748    12.788    38.030    24.859   101.789     1.452     0.000     0.000    36.952     0.000     0.000     0.000     0.000     0.000     0.000     0.551     0.001     0.000 .00000E+00 0.000E+00 0.000E+00 0.000E+00 0.000E+00 0.000E+00     8.406     0.168
BIGSUB   3        0    8.13769E+01    30.450    10.424    41.431    34.322   118.165    28.761     0.901     4.912    11.146     2.724     0.000     0.000     0.000     0.000     0.000     2.399     0.005     0.000 .00000E+00 0.000E+00 0.000E+00 0.000E+00 0.000E+00 0.000E+00    50.911     0.203
BIGSUB   1        0    9.24803E+01    36.876     0.682    57.405    16.363    99.014     0.000     3.572     0.000    22.652    19.953     0.014     0.002     0.001     0.000     0.002     0.188     0.000     0.000 .00000E+00 0.000E+00 0.000E+00 0.000E+00 0.000E+00 0.000E+00     0.060     0.001
BIGSUB   2        0    9.14730E+01    45.114    10.592    53.706    30.208   117.970    11.769     4.469     0.000    32.591    16.644     0.001     0.000     0.000     0.000     0.000     1.421     0.004     0.000 .00000E+00 0.000E+00 0.000E+00 0.000E+00 0.000E+00 0.000E+00    17.193     0.228
BIGSUB   3        0    9.13769E+01    43.633     5.786    54.884    41.621   129.834    71.022    14.973    21.065    46.176    55.203     0.002     0.001     0.000     0.000     0.000     7.721     0.019     0.003 .00000E+00 0.000E+00 0.000E+00 0.000E+00 0.000E+00 0.000E+00   101.289     0.278
BIGSUB   1        0   10.24803E+01    65.451     0.276    46.138    31.859   123.843     0.038     8.047     0.000    22.978    29.263     0.021     0.003     0.001     0.000     0.002     0.482     0.000     0.000 .00000E+00 0.000E+00 0.000E+00 0.000E+00 0.000E+00 0.000E+00     0.084     0.000
BIGSUB   2        0   10.14730E+01    75.354     4.668    42.322    35.710   135.700    27.613    11.354     0.000    38.153    64.294     0.002     0.000     0.001     0.000     0.000     3.835     0.012     0.000 .00000E+00 0.000E+00 0.000E+00 0.000E+00 0.000E+00 0.000E+00    24.365     0.084
BIGSUB   3        0   10.13769E+01    73.660     3.013    43.602    39.707   142.365   104.789    42.356    50.214   109.290   159.211     0.006     0.001     0.001     0.000     0.001    14.105     0.028     0.012 .00000E+00 0.000E+00 0.000E+00 0.000E+00 0.000E+00 0.000E+00   141.870     0.104
BIGSUB   1        0   11.24803E+01   151.963     0.607    25.633    21.928   134.592    69.959    39.615     0.000    57.831   119.271     0.164     0.020     0.001     0.000     0.016     4.877     0.020     0.000 .00000E+00 0.000E+00 0.000E+00 0.000E+00 0.000E+00 0.000E+00     0.085     0.000
BIGSUB   2        0   11.14730E+01   163.891    18.100    20.765    18.886   137.277   102.378    47.308     0.000    83.714   163.427     0.009     0.001     0.000     0.000     0.001    11.149     0.038     0.000 .00000E+00 0.000E+00 0.000E+00 0.000E+00 0.000E+00 0.000E+00    21.388     0.135
BIGSUB   3        0   11.13769E+01   161.964     6.551    24.040    22.992   144.740   151.191    92.646    81.359   198.260   297.833     0.014     0.002     0.000     0.000     0.001    21.173     0.034     0.017 .00000E+00 0.000E+00 0.000E+00 0.000E+00 0.000E+00 0.000E+00   132.172     0.075
BIGSUB   1        0   12.24803E+01   246.284     0.302    15.352    14.963   135.714   130.206    82.984     0.000   116.455   212.953     0.351     0.043     0.000     0.001     0.032    10.204     0.035     0.000 .00000E+00 0.000E+00 0.000E+00 0.000E+00 0.000E+00 0.000E+00     0.095     0.000
BIGSUB   2        0   12.14730E+01   259.841    14.705    12.060    11.787   138.030   150.489    95.618     0.000   153.149   429.718     0.019     0.002     0.000     0.000     0.002    18.170     0.045     0.000 .00000E+00 0.000E+00 0.000E+00 0.000E+00 0.000E+00 0.000E+00    25.970     0.002
BIGSUB   3        0   12.13769E+01   257.768     5.130    12.741    12.414   144.629   199.341   164.724   119.986   317.606   607.033     0.027     0.003     0.000     0.000     0.002    28.779     0.031     0.016 .00000E+00 0.000E+00 0.000E+00 0.000E+00 0.000E+00 0.000E+00   154.900     0.001
BIGSUB   1        0 1997.24803E+01  1169.505    15.708   565.281   259.949   135.714   518.281   319.086     0.000   831.478   903.092    29.053     3.553     0.004     0.005     2.850    66.766     0.160     0.000 .00000E+00 0.000E+00 0.000E+00 0.000E+00 0.000E+00 0.000E+00     0.635     0.017
BIGSUB   2        0 1997.14730E+01  1292.549   216.950   503.472   302.024   138.030   695.830   355.203     0.000  1109.509  1416.750    29.779     3.642     0.002     0.002     2.928   122.632     0.217     0.000 .00000E+00 0.000E+00 0.000E+00 0.000E+00 0.000E+00 0.000E+00   166.693     5.673
BIGSUB   3        0 1997.13769E+01  1271.816   123.922   533.737   410.775   144.629  1112.580   623.501  1006.276  1886.677  2100.196    29.533     3.618     0.002     0.003     2.895   203.537     0.208     0.106 .00000E+00 0.000E+00 0.000E+00 0.000E+00 0.000E+00 0.000E+00  1009.528     7.020
BIGSUB   1        0    1.24803E+01   320.535     0.117    17.251    16.980   143.103   166.736   107.279     0.000   167.939   333.008    27.868     3.407     0.000     0.003     2.726    17.021     0.033     0.000 .00000E+00 0.000E+00 0.000E+00 0.000E+00 0.000E+00 0.000E+00     0.108     0.000
BIGSUB   2        0    1.14730E+01   334.626     6.485    15.389    15.135   144.465   182.828   128.679     0.000   217.121   526.483    29.543     3.611     0.000     0.002     2.896    26.962     0.034     0.000 .00000E+00 0.000E+00 0.000E+00 0.000E+00 0.000E+00 0.000E+00    31.592     0.018
BIGSUB   3        0    1.13769E+01   332.546     3.725    15.765    15.414   150.404   224.074   228.921   158.279   428.985   781.609    29.289     3.582     0.000     0.003     2.865    36.438     0.024     0.016 .00000E+00 0.000E+00 0.000E+00 0.000E+00 0.000E+00 0.000E+00   182.899     0.022
BIGSUB   1        0    2.24803E+01   303.157     0.950    21.131    20.329   147.645   147.889   110.560     0.000   191.555   339.059     0.555     0.068     0.000     0.001     0.066    18.764     0.020     0.000 .00000E+00 0.000E+00 0.000E+00 0.000E+00 0.000E+00 0.000E+00     0.077     0.001
BIGSUB   2        0    2.14730E+01   315.389     9.509    18.975    18.061   148.277   162.658   123.885     0.000   230.805   611.620     0.038     0.005     0.000     0.000     0.013    28.492     0.018     0.000 .00000E+00 0.000E+00 0.000E+00 0.000E+00 0.000E+00 0.000E+00    22.256     0.217
BIGSUB   3        0    2.13769E+01   313.612     6.611    20.189    19.695   152.339   194.297   191.573   169.353   403.153   796.852     0.034     0.005     0.000     0.000     0.009    36.262     0.015     0.012 .00000E+00 0.000E+00 0.000E+00 0.000E+00 0.000E+00 0.000E+00   129.042     0.337
BIGSUB   1        0    3.24803E+01   193.195     0.000    36.611    32.783   133.519   121.635    38.077     0.000   147.085    97.514     0.181     0.022     0.000     0.000     0.017    19.277     0.015     0.000 .00000E+00 0.000E+00 0.000E+00 0.000E+00 0.000E+00 0.000E+00     0.059     0.000
BIGSUB   2        0    3.14730E+01   206.159     1.382    34.009    30.825   135.305   135.870    47.260     0.000   183.942   183.016     0.012     0.001     0.000     0.000     0.001    29.357     0.014     0.000 .00000E+00 0.000E+00 0.000E+00 0.000E+00 0.000E+00 0.000E+00    17.123     0.053
BIGSUB   3        0    3.13769E+01   204.113     0.000    35.029    33.056   140.800   171.861    82.682   193.246   320.829   269.427     0.015     0.002     0.000     0.000     0.001    37.345     0.012     0.010 .00000E+00 0.000E+00 0.000E+00 0.000E+00 0.000E+00 0.000E+00    99.141     0.000
BIGSUB   1        0    4.24803E+01    76.859     0.000    42.553    32.132   119.816    39.331    14.790     0.000   124.708    40.746     0.044     0.005     0.000     0.000     0.004    13.327     0.010     0.000 .00000E+00 0.000E+00 0.000E+00 0.000E+00 0.000E+00 0.000E+00     0.042     0.000
BIGSUB   2        0    4.14730E+01    89.078     0.000    40.086    35.438   124.747    52.553    17.777     0.000   151.821    81.703     0.003     0.000     0.000     0.000     0.000    20.970     0.011     0.000 .00000E+00 0.000E+00 0.000E+00 0.000E+00 0.000E+00 0.000E+00    12.607     0.000
BIGSUB   3        0    4.13769E+01    86.996     0.000    40.780    37.636   131.473    93.217    27.565   168.721   232.375   128.133     0.004     0.001     0.000     0.000     0.000    28.392     0.010     0.008 .00000E+00 0.000E+00 0.000E+00 0.000E+00 0.000E+00 0.000E+00    72.298     0.000
BIGSUB   1        0    5.24803E+01     4.369     0.000    98.259    33.008    93.466     0.005     0.082     0.000    97.005     0.000     0.003     0.000     0.000     0.000     0.000     5.380     0.004     0.000 .00000E+00 0.000E+00 0.000E+00 0.000E+00 0.000E+00 0.000E+00     0.023     0.000
BIGSUB   2        0    5.14730E+01     8.649     0.200    92.875    47.265    98.613     2.232     0.009     0.000   116.699     0.000     0.000     0.000     0.000     0.000     0.000     9.207     0.005     0.000 .00000E+00 0.000E+00 0.000E+00 0.000E+00 0.000E+00 0.000E+00     6.937     0.000
BIGSUB   3        0    5.13769E+01     7.855     0.031    94.293    70.512   109.581    14.242     0.016   121.757   144.243     0.000     0.000     0.000     0.000     0.000     0.000    15.050     0.006     0.004 .00000E+00 0.000E+00 0.000E+00 0.000E+00 0.000E+00 0.000E+00    39.703     0.000
BIGSUB   1        0    6.24803E+01     4.820     0.037    94.020    18.602    82.098     0.000     0.000     0.000    73.784     0.000     0.000     0.000     0.000     0.000     0.000     1.883     0.001     0.000 .00000E+00 0.000E+00 0.000E+00 0.000E+00 0.000E+00 0.000E+00     0.008     0.000
BIGSUB   2        0    6.14730E+01     9.727     1.012    88.824    30.505    88.669     0.000     0.000     0.000    88.082     0.000     0.000     0.000     0.000     0.000     0.000     3.255     0.002     0.000 .00000E+00 0.000E+00 0.000E+00 0.000E+00 0.000E+00 0.000E+00     2.435     0.002
BIGSUB   3        0    6.13769E+01     8.775     0.308    90.148    53.229    97.560     0.000     0.000    61.213    72.757     0.000     0.000     0.000     0.000     0.000     0.000     5.578     0.002     0.001 .00000E+00 0.000E+00 0.000E+00 0.000E+00 0.000E+00 0.000E+00    14.115     0.001
BIGSUB   1        0    7.24803E+01     3.236     0.024    98.269    16.447    71.406     0.000     0.000     0.000    58.026     0.000     0.000     0.000     0.000     0.000     0.000     0.707     0.001     0.000 .00000E+00 0.000E+00 0.000E+00 0.000E+00 0.000E+00 0.000E+00     0.015     0.000
BIGSUB   2        0    7.14730E+01     7.354     0.996    92.865    26.026    83.127     0.000     0.000     0.000    69.008     0.000     0.000     0.000     0.000     0.000     0.000     1.243     0.001     0.000 .00000E+00 0.000E+00 0.000E+00 0.000E+00 0.000E+00 0.000E+00     4.476     0.001
BIGSUB   3        0    7.13769E+01     6.559     0.297    94.212    49.661    99.123     0.000     0.000    26.710    33.709     0.000     0.000     0.000     0.000     0.000     0.000     2.193     0.001     0.000 .00000E+00 0.000E+00 0.000E+00 0.000E+00 0.000E+00 0.000E+00    26.022     0.001
BIGSUB   1        0    8.24803E+01     9.551     0.015    75.054    15.572    67.294     0.000     0.000     0.000    43.283     0.000     0.000     0.000     0.000     0.000     0.000     0.283     0.000     0.000 .00000E+00 0.000E+00 0.000E+00 0.000E+00 0.000E+00 0.000E+00     0.038     0.000
BIGSUB   2        0    8.14730E+01    17.905     0.633    70.982    30.704    87.198     0.000     0.030     0.000    51.521     0.113     0.000     0.000     0.000     0.000     0.000     0.603     0.000     0.000 .00000E+00 0.000E+00 0.000E+00 0.000E+00 0.000E+00 0.000E+00    11.350     0.001
BIGSUB   3        0    8.13769E+01    16.319     0.187    72.060    51.161   111.985    23.947     1.069     5.707    12.988     3.971     0.000     0.000     0.000     0.000     0.000     2.565     0.004     0.000 .00000E+00 0.000E+00 0.000E+00 0.000E+00 0.000E+00 0.000E+00    65.469     0.000
BIGSUB   1        0    9.24803E+01    27.330     0.000    57.769    14.401    80.285     0.000     1.211     0.000    32.380     4.338     0.004     0.000     0.020     0.000     0.000     0.164     0.000     0.000 .00000E+00 0.000E+00 0.000E+00 0.000E+00 0.000E+00 0.000E+00     0.069     0.000
BIGSUB   2        0    9.14730E+01    35.993     0.348    54.695    28.216   104.026     9.820     3.236     0.000    41.126    18.397     0.000     0.000     0.001     0.000     0.000     1.031     0.002     0.000 .00000E+00 0.000E+00 0.000E+00 0.000E+00 0.000E+00 0.000E+00    20.978     0.000
BIGSUB   3        0    9.13769E+01    34.422     0.000    55.571    41.634   124.550    74.795    19.463    19.716    49.623    73.022     0.002     0.000     0.001     0.000     0.000     7.539     0.018     0.003 .00000E+00 0.000E+00 0.000E+00 0.000E+00 0.000E+00 0.000E+00   120.620     0.000
BIGSUB   1        0   10.24803E+01    75.106     0.079    38.348    27.630   116.882     2.666     6.773     0.000    31.442    32.052     0.024     0.003     0.000     0.000     0.002     0.900     0.002     0.000 .00000E+00 0.000E+00 0.000E+00 0.000E+00 0.000E+00 0.000E+00     0.081     0.000
BIGSUB   2        0   10.14730E+01    86.893     1.672    36.068    30.950   123.064    40.948    12.547     0.000    47.833    52.107     0.002     0.000     0.000     0.000     0.000     4.597     0.014     0.000 .00000E+00 0.000E+00 0.000E+00 0.000E+00 0.000E+00 0.000E+00    23.840     0.025
BIGSUB   3        0   10.13769E+01    84.890     0.621    36.702    33.429   133.494   117.180    45.076    51.712   115.102   117.714     0.006     0.001     0.000     0.000     0.001    15.301     0.029     0.012 .00000E+00 0.000E+00 0.000E+00 0.000E+00 0.000E+00 0.000E+00   137.859     0.022
BIGSUB   1        0   11.24803E+01    78.053     0.496    23.566    18.652   135.945    25.662    10.572     0.000    24.693    25.736     0.034     0.004     0.001     0.000     0.003     1.411     0.005     0.000 .00000E+00 0.000E+00 0.000E+00 0.000E+00 0.000E+00 0.000E+00     0.064     0.000
BIGSUB   2        0   11.14730E+01    85.736    12.260    21.695    19.622   139.230    44.844    14.013     0.000    39.333    48.534     0.002     0.000     0.000     0.000     0.000     5.172     0.016     0.000 .00000E+00 0.000E+00 0.000E+00 0.000E+00 0.000E+00 0.000E+00    17.506     0.075
BIGSUB   3        0   11.13769E+01    84.455     5.658    22.088    20.475   146.027    91.900    48.677    53.770   118.041   134.202     0.006     0.001     0.000     0.000     0.000    13.298     0.021     0.012 .00000E+00 0.000E+00 0.000E+00 0.000E+00 0.000E+00 0.000E+00   105.087     0.077
BIGSUB   1        0 1998.24803E+01  1096.212     1.717   602.829   246.537   135.945   503.924   289.343     0.000   991.900   872.454    28.713     3.511     0.021     0.005     2.820    79.118     0.092     0.000 .00000E+00 0.000E+00 0.000E+00 0.000E+00 0.000E+00 0.000E+00     0.585     0.001
BIGSUB   2        0 1998.14730E+01  1197.508    34.497   566.462   312.747   139.230   631.752   347.437     0.000  1237.289  1521.972    29.600     3.618     0.002     0.003     2.911   130.890     0.117     0.000 .00000E+00 0.000E+00 0.000E+00 0.000E+00 0.000E+00 0.000E+00   171.100     0.392
BIGSUB   3        0 1998.13769E+01  1180.542    17.438   576.837   425.902   146.027  1005.512   645.040  1030.185  1931.805  2304.930    29.357     3.592     0.002     0.004     2.878   199.962     0.144     0.080 .00000E+00 0.000E+00 0.000E+00 0.000E+00 0.000E+00 0.000E+00   992.256     0.460
BIGSUB   1        0  9.7.24803E+01  1030.670    18.890   517.305   267.042   135.945   493.487   206.201     0.000   757.482   590.347    44.448     5.441     0.005     0.005     4.332    68.132     0.250     0.000 .00000E+00 0.000E+00 0.000E+00 0.000E+00 0.000E+00 0.000E+00     0.615     0.023
BIGSUB   2        0  9.7.14730E+01  1167.262   210.548   464.556   310.321   139.230   678.075   239.036     0.000  1024.533   937.684    47.701     5.840     0.002     0.002     4.656   125.612     0.321     0.000 .00000E+00 0.000E+00 0.000E+00 0.000E+00 0.000E+00 0.000E+00   160.589     6.328
BIGSUB   3        0  9.7.13769E+01  1143.913   124.633   485.959   393.866   146.027  1097.868   483.514  1016.192  1755.985  1556.179    47.691     5.841     0.002     0.003     4.651   203.173     0.327     0.142 .00000E+00 0.000E+00 0.000E+00 0.000E+00 0.000E+00 0.000E+00   973.053     7.845
