1
    SWAT Dec 23 2016    VER 2016/Rev 664                                                                 0/ 0/   0      0: 0: 0

    General Input/Output section (file.cio):                                        
    5/31/2025 12:00:00 AM ARCGIS-SWAT interface AV                                  
                                                                                    


       RCH      GIS   MON     AREAkm2  FLOW_INcms FLOW_OUTcms     EVAPcms    TLOSScms  SED_INtons SED_OUTtons SEDCONCmg/L   ORGN_INkg  ORGN_OUTkg   ORGP_INkg  ORGP_OUTkg    NO3_INkg   NO3_OUTkg    NH4_INkg   NH4_OUTkg    NO2_INkg   NO2_OUTkg   MINP_INkg  MINP_OUTkg   CHLA_INkg  CHLA_OUTkg   CBOD_INkg  CBOD_OUTkg  DISOX_INkg DISOX_OUTkg SOLPST_INmgSOLPST_OUTmg SORPST_INmgSORPST_OUTmg  REACTPSTmg    VOLPSTmg  SETTLPSTmgRESUSP_PSTmgDIFFUSEPSTmgREACBEDPSTmg   BURYPSTmg   BED_PSTmg BACTP_OUTctBACTLP_OUTct  CMETAL#1kg  CMETAL#2kg  CMETAL#3kg     TOT Nkg     TOT Pkg NO3ConcMg/l    WTMPdegc
REACH    1        0     3  0.5330E+01  0.1646E+00  0.1646E+00  0.2630E-04  0.0000E+00  0.7097E+04  0.5280E+02  0.1516E+03  0.1931E+05  0.1927E+05  0.4206E+04  0.4193E+04  0.4576E+03  0.4574E+03  0.5371E+01  0.1611E+02  0.0000E+00  0.1305E-01  0.1484E+01  0.4439E+01  0.5808E+02  0.4777E+02  0.1335E+06  0.1312E+06  0.2735E+04  0.1374E+04  0.0000E+00  0.0000E+00  0.0000E+00  0.0000E+00  0.0000E+00  0.0000E+00  0.0000E+00  0.0000E+00  0.0000E+00  0.0000E+00  0.0000E+00  0.0000E+00  0.0000E+00  0.0000E+00  0.0000E+00  0.0000E+00  0.0000E+00  0.1974E+05  0.4197E+04  0.0000E+00  0.0000E+00
REACH    2        0     3  0.1473E+01  0.3312E-01  0.3311E-01  0.2478E-05  0.0000E+00  0.6035E+03  0.6035E+03  0.4761E+04  0.2126E+04  0.2124E+04  0.4630E+03  0.4626E+03  0.9480E+02  0.9480E+02  0.0000E+00  0.9483E+00  0.0000E+00  0.0000E+00  0.7634E-01  0.2286E+00  0.4243E+01  0.3876E+01  0.1145E+05  0.1139E+05  0.7159E+03  0.5678E+03  0.0000E+00  0.0000E+00  0.0000E+00  0.0000E+00  0.0000E+00  0.0000E+00  0.0000E+00  0.0000E+00  0.0000E+00  0.0000E+00  0.0000E+00  0.0000E+00  0.0000E+00  0.0000E+00  0.0000E+00  0.0000E+00  0.0000E+00  0.2220E+04  0.4628E+03  0.0000E+00  0.0000E+00
REACH    3        0     3  0.1377E+01  0.4939E-01  0.4939E-01  0.3560E-05  0.0000E+00  0.2654E+04  0.2654E+04  0.1301E+05  0.7619E+04  0.7613E+04  0.1660E+04  0.1658E+04  0.1288E+03  0.1288E+03  0.0000E+00  0.4423E+01  0.0000E+00  0.0000E+00  0.2734E+00  0.8186E+00  0.4191E+02  0.3910E+02  0.7038E+05  0.6998E+05  0.9850E+03  0.5601E+03  0.0000E+00  0.0000E+00  0.0000E+00  0.0000E+00  0.0000E+00  0.0000E+00  0.0000E+00  0.0000E+00  0.0000E+00  0.0000E+00  0.0000E+00  0.0000E+00  0.0000E+00  0.0000E+00  0.0000E+00  0.0000E+00  0.0000E+00  0.7747E+04  0.1659E+04  0.0000E+00  0.0000E+00
REACH    1        0     4  0.5330E+01  0.1686E+00  0.1685E+00  0.7016E-04  0.0000E+00  0.1621E+05  0.7493E+02  0.1564E+03  0.2236E+05  0.2230E+05  0.4884E+04  0.4866E+04  0.5584E+03  0.5581E+03  0.1093E+02  0.3279E+02  0.0000E+00  0.2793E-01  0.2059E+01  0.6171E+01  0.3940E+02  0.3146E+02  0.2345E+06  0.2301E+06  0.2644E+04  0.1622E+04  0.0000E+00  0.0000E+00  0.0000E+00  0.0000E+00  0.0000E+00  0.0000E+00  0.0000E+00  0.0000E+00  0.0000E+00  0.0000E+00  0.0000E+00  0.0000E+00  0.0000E+00  0.0000E+00  0.0000E+00  0.0000E+00  0.0000E+00  0.2289E+05  0.4872E+04  0.0000E+00  0.0000E+00
REACH    2        0     4  0.1473E+01  0.5676E-01  0.5676E-01  0.4516E-05  0.0000E+00  0.6023E+04  0.6023E+04  0.2383E+05  0.1038E+05  0.1037E+05  0.2263E+04  0.2261E+04  0.2121E+03  0.2120E+03  0.0000E+00  0.4442E+01  0.0000E+00  0.0000E+00  0.2928E+00  0.8777E+00  0.2010E+02  0.1888E+02  0.8665E+05  0.8628E+05  0.1650E+04  0.8603E+03  0.0000E+00  0.0000E+00  0.0000E+00  0.0000E+00  0.0000E+00  0.0000E+00  0.0000E+00  0.0000E+00  0.0000E+00  0.0000E+00  0.0000E+00  0.0000E+00  0.0000E+00  0.0000E+00  0.0000E+00  0.0000E+00  0.0000E+00  0.1059E+05  0.2262E+04  0.0000E+00  0.0000E+00
REACH    3        0     4  0.1377E+01  0.7589E-01  0.7588E-01  0.1089E-04  0.0000E+00  0.9009E+04  0.9009E+04  0.3440E+05  0.1024E+05  0.1023E+05  0.2243E+04  0.2240E+04  0.2155E+03  0.2155E+03  0.0000E+00  0.6491E+01  0.0000E+00  0.0000E+00  0.3745E+00  0.1122E+01  0.1945E+02  0.1792E+02  0.1340E+06  0.1332E+06  0.2091E+04  0.7273E+03  0.0000E+00  0.0000E+00  0.0000E+00  0.0000E+00  0.0000E+00  0.0000E+00  0.0000E+00  0.0000E+00  0.0000E+00  0.0000E+00  0.0000E+00  0.0000E+00  0.0000E+00  0.0000E+00  0.0000E+00  0.0000E+00  0.0000E+00  0.1045E+05  0.2241E+04  0.0000E+00  0.0000E+00
REACH    1        0     5  0.5330E+01  0.5143E-01  0.5130E-01  0.1255E-03  0.0000E+00  0.3153E+03  0.1321E+02  0.9340E+02  0.1838E+03  0.1826E+03  0.4070E+02  0.4035E+02  0.6567E+02  0.6552E+02  0.1730E+00  0.5179E+00  0.0000E+00  0.9620E-03  0.3168E-01  0.9485E-01  0.1185E-01  0.2328E-02  0.1002E+04  0.9640E+03  0.1303E+04  0.1199E+04  0.0000E+00  0.0000E+00  0.0000E+00  0.0000E+00  0.0000E+00  0.0000E+00  0.0000E+00  0.0000E+00  0.0000E+00  0.0000E+00  0.0000E+00  0.0000E+00  0.0000E+00  0.0000E+00  0.0000E+00  0.0000E+00  0.0000E+00  0.2487E+03  0.4044E+02  0.0000E+00  0.0000E+00
REACH    2        0     5  0.1473E+01  0.8786E-02  0.8773E-02  0.1303E-04  0.0000E+00  0.1771E+00  0.1771E+00  0.4300E+01  0.3255E+00  0.3246E+00  0.7116E-01  0.7089E-01  0.1327E+02  0.1325E+02  0.0000E+00  0.4939E-02  0.0000E+00  0.0000E+00  0.4082E-04  0.1078E-03  0.9832E-07  0.0000E+00  0.5070E-01  0.4998E-01  0.2839E+03  0.2753E+03  0.0000E+00  0.0000E+00  0.0000E+00  0.0000E+00  0.0000E+00  0.0000E+00  0.0000E+00  0.0000E+00  0.0000E+00  0.0000E+00  0.0000E+00  0.0000E+00  0.0000E+00  0.0000E+00  0.0000E+00  0.0000E+00  0.0000E+00  0.1358E+02  0.7100E-01  0.0000E+00  0.0000E+00
REACH    3        0     5  0.1377E+01  0.3638E-01  0.3636E-01  0.1880E-04  0.0000E+00  0.3151E+03  0.3151E+03  0.2601E+04  0.1838E+03  0.1835E+03  0.4072E+02  0.4063E+02  0.5188E+02  0.5185E+02  0.0000E+00  0.1680E+00  0.0000E+00  0.0000E+00  0.1053E-01  0.3156E-01  0.1455E-01  0.1185E-01  0.1012E+04  0.1002E+04  0.1146E+04  0.8317E+03  0.0000E+00  0.0000E+00  0.0000E+00  0.0000E+00  0.0000E+00  0.0000E+00  0.0000E+00  0.0000E+00  0.0000E+00  0.0000E+00  0.0000E+00  0.0000E+00  0.0000E+00  0.0000E+00  0.0000E+00  0.0000E+00  0.0000E+00  0.2355E+03  0.4066E+02  0.0000E+00  0.0000E+00
REACH    1        0     6  0.5330E+01  0.3110E-01  0.3098E-01  0.1270E-03  0.0000E+00  0.1701E+01  0.5184E+01  0.6111E+02  0.7188E+00  0.7136E+00  0.1597E+00  0.1581E+00  0.1590E+02  0.1585E+02  0.1042E-01  0.3114E-01  0.0000E+00  0.7675E-04  0.1213E-03  0.3426E-03  0.1605E-06  0.0000E+00  0.3810E+00  0.3666E+00  0.9590E+03  0.9576E+03  0.0000E+00  0.0000E+00  0.0000E+00  0.0000E+00  0.0000E+00  0.0000E+00  0.0000E+00  0.0000E+00  0.0000E+00  0.0000E+00  0.0000E+00  0.0000E+00  0.0000E+00  0.0000E+00  0.0000E+00  0.0000E+00  0.0000E+00  0.1659E+02  0.1585E+00  0.0000E+00  0.0000E+00
REACH    2        0     6  0.1473E+01  0.6003E-02  0.5990E-02  0.1314E-04  0.0000E+00  0.3805E-06  0.3805E-06  0.2631E-04  0.4322E-05  0.0000E+00  0.1297E-04  0.4288E-05  0.2043E+01  0.2039E+01  0.0000E+00  0.4153E-02  0.0000E+00  0.0000E+00  0.4331E-05  0.0000E+00  0.4783E-17  0.0000E+00  0.0000E+00  0.0000E+00  0.1913E+03  0.1854E+03  0.0000E+00  0.0000E+00  0.0000E+00  0.0000E+00  0.0000E+00  0.0000E+00  0.0000E+00  0.0000E+00  0.0000E+00  0.0000E+00  0.0000E+00  0.0000E+00  0.0000E+00  0.0000E+00  0.0000E+00  0.0000E+00  0.0000E+00  0.2043E+01  0.4288E-05  0.0000E+00  0.0000E+00
REACH    3        0     6  0.1377E+01  0.1909E-01  0.1907E-01  0.1858E-04  0.0000E+00  0.1701E+01  0.1701E+01  0.2188E+02  0.7201E+00  0.7188E+00  0.1600E+00  0.1597E+00  0.1325E+02  0.1324E+02  0.0000E+00  0.6271E-02  0.0000E+00  0.0000E+00  0.4364E-04  0.1143E-03  0.2213E-06  0.1605E-06  0.3847E+00  0.3810E+00  0.5981E+03  0.5890E+03  0.0000E+00  0.0000E+00  0.0000E+00  0.0000E+00  0.0000E+00  0.0000E+00  0.0000E+00  0.0000E+00  0.0000E+00  0.0000E+00  0.0000E+00  0.0000E+00  0.0000E+00  0.0000E+00  0.0000E+00  0.0000E+00  0.0000E+00  0.1396E+02  0.1598E+00  0.0000E+00  0.0000E+00
REACH    1        0     7  0.5330E+01  0.2260E-01  0.2244E-01  0.1608E-03  0.0000E+00  0.4261E+02  0.3871E+01  0.6442E+02  0.2390E+02  0.2361E+02  0.5302E+01  0.5220E+01  0.9346E+01  0.9287E+01  0.3556E-01  0.1060E+00  0.0000E+00  0.3122E-03  0.3198E-02  0.9529E-02  0.6563E-03  0.0000E+00  0.1054E+03  0.9960E+02  0.6670E+03  0.6520E+03  0.0000E+00  0.0000E+00  0.0000E+00  0.0000E+00  0.0000E+00  0.0000E+00  0.0000E+00  0.0000E+00  0.0000E+00  0.0000E+00  0.0000E+00  0.0000E+00  0.0000E+00  0.0000E+00  0.0000E+00  0.0000E+00  0.0000E+00  0.3300E+02  0.5229E+01  0.0000E+00  0.0000E+00
REACH    2        0     7  0.1473E+01  0.3830E-02  0.3813E-02  0.1670E-04  0.0000E+00  0.3932E-06  0.3932E-06  0.4037E-04  0.4466E-05  0.0000E+00  0.1340E-04  0.1284E-04  0.3998E+00  0.3986E+00  0.0000E+00  0.4140E-02  0.0000E+00  0.0000E+00  0.4471E-05  0.0000E+00  0.1217E-16  0.0000E+00  0.0000E+00  0.0000E+00  0.1275E+03  0.1233E+03  0.0000E+00  0.0000E+00  0.0000E+00  0.0000E+00  0.0000E+00  0.0000E+00  0.0000E+00  0.0000E+00  0.0000E+00  0.0000E+00  0.0000E+00  0.0000E+00  0.0000E+00  0.0000E+00  0.0000E+00  0.0000E+00  0.0000E+00  0.4028E+00  0.1284E-04  0.0000E+00  0.0000E+00
REACH    3        0     7  0.1377E+01  0.1418E-01  0.1416E-01  0.2345E-04  0.0000E+00  0.4261E+02  0.4261E+02  0.6435E+03  0.2396E+02  0.2390E+02  0.5320E+01  0.5302E+01  0.8630E+01  0.8618E+01  0.0000E+00  0.3142E-01  0.0000E+00  0.0000E+00  0.1068E-02  0.3190E-02  0.9986E-03  0.6563E-03  0.1067E+03  0.1054E+03  0.4618E+03  0.3959E+03  0.0000E+00  0.0000E+00  0.0000E+00  0.0000E+00  0.0000E+00  0.0000E+00  0.0000E+00  0.0000E+00  0.0000E+00  0.0000E+00  0.0000E+00  0.0000E+00  0.0000E+00  0.0000E+00  0.0000E+00  0.0000E+00  0.0000E+00  0.3255E+02  0.5306E+01  0.0000E+00  0.0000E+00
REACH    1        0     8  0.5330E+01  0.5287E-01  0.5274E-01  0.1254E-03  0.0000E+00  0.1885E+04  0.1391E+02  0.9627E+02  0.9648E+03  0.9587E+03  0.2144E+03  0.2126E+03  0.6271E+02  0.6256E+02  0.8173E+00  0.2447E+01  0.0000E+00  0.3807E-02  0.8660E-01  0.2593E+00  0.4439E+00  0.8040E-01  0.1389E+05  0.1339E+05  0.8074E+03  0.6094E+03  0.0000E+00  0.0000E+00  0.0000E+00  0.0000E+00  0.0000E+00  0.0000E+00  0.0000E+00  0.0000E+00  0.0000E+00  0.0000E+00  0.0000E+00  0.0000E+00  0.0000E+00  0.0000E+00  0.0000E+00  0.0000E+00  0.0000E+00  0.1024E+04  0.2128E+03  0.0000E+00  0.0000E+00
REACH    2        0     8  0.1473E+01  0.8359E-02  0.8346E-02  0.1299E-04  0.0000E+00  0.7984E+00  0.7984E+00  0.2358E+02  0.1141E+01  0.1138E+01  0.2496E+00  0.2487E+00  0.1081E+02  0.1079E+02  0.0000E+00  0.6197E-02  0.0000E+00  0.0000E+00  0.5309E-04  0.1465E-03  0.4463E-06  0.2225E-06  0.1999E+00  0.1965E+00  0.2734E+03  0.2649E+03  0.0000E+00  0.0000E+00  0.0000E+00  0.0000E+00  0.0000E+00  0.0000E+00  0.0000E+00  0.0000E+00  0.0000E+00  0.0000E+00  0.0000E+00  0.0000E+00  0.0000E+00  0.0000E+00  0.0000E+00  0.0000E+00  0.0000E+00  0.1194E+02  0.2488E+00  0.0000E+00  0.0000E+00
REACH    3        0     8  0.1377E+01  0.4051E-01  0.4049E-01  0.1893E-04  0.0000E+00  0.1884E+04  0.1884E+04  0.1431E+05  0.9651E+03  0.9637E+03  0.2146E+03  0.2141E+03  0.5063E+02  0.5061E+02  0.0000E+00  0.8111E+00  0.0000E+00  0.0000E+00  0.2883E-01  0.8645E-01  0.5281E+00  0.4439E+00  0.1401E+05  0.1389E+05  0.1243E+04  0.4160E+03  0.0000E+00  0.0000E+00  0.0000E+00  0.0000E+00  0.0000E+00  0.0000E+00  0.0000E+00  0.0000E+00  0.0000E+00  0.0000E+00  0.0000E+00  0.0000E+00  0.0000E+00  0.0000E+00  0.0000E+00  0.0000E+00  0.0000E+00  0.1015E+04  0.2142E+03  0.0000E+00  0.0000E+00
REACH    1        0     9  0.5330E+01  0.1164E+00  0.1163E+00  0.8628E-04  0.0000E+00  0.1498E+05  0.4158E+02  0.1345E+03  0.2906E+04  0.2894E+04  0.6467E+03  0.6429E+03  0.1088E+03  0.1088E+03  0.2044E+01  0.6128E+01  0.0000E+00  0.5255E-02  0.4592E+00  0.1377E+01  0.6418E+01  0.3287E+01  0.2539E+06  0.2473E+06  0.7163E+03  0.2785E+03  0.0000E+00  0.0000E+00  0.0000E+00  0.0000E+00  0.0000E+00  0.0000E+00  0.0000E+00  0.0000E+00  0.0000E+00  0.0000E+00  0.0000E+00  0.0000E+00  0.0000E+00  0.0000E+00  0.0000E+00  0.0000E+00  0.0000E+00  0.3009E+04  0.6443E+03  0.0000E+00  0.0000E+00
REACH    2        0     9  0.1473E+01  0.1808E-01  0.1807E-01  0.9044E-05  0.0000E+00  0.2066E+03  0.2066E+03  0.4292E+04  0.3959E+03  0.3953E+03  0.8660E+02  0.8639E+02  0.3839E+02  0.3837E+02  0.0000E+00  0.4031E+00  0.0000E+00  0.0000E+00  0.1328E-01  0.3982E-01  0.4247E-01  0.2863E-01  0.7303E+03  0.7218E+03  0.5544E+03  0.3514E+03  0.0000E+00  0.0000E+00  0.0000E+00  0.0000E+00  0.0000E+00  0.0000E+00  0.0000E+00  0.0000E+00  0.0000E+00  0.0000E+00  0.0000E+00  0.0000E+00  0.0000E+00  0.0000E+00  0.0000E+00  0.0000E+00  0.0000E+00  0.4340E+03  0.8643E+02  0.0000E+00  0.0000E+00
REACH    3        0     9  0.1377E+01  0.9336E-01  0.9334E-01  0.1346E-04  0.0000E+00  0.1478E+05  0.1478E+05  0.5766E+05  0.2514E+04  0.2511E+04  0.5611E+03  0.5603E+03  0.6724E+02  0.6723E+02  0.0000E+00  0.1641E+01  0.0000E+00  0.0000E+00  0.1433E+00  0.4194E+00  0.7045E+01  0.6389E+01  0.2549E+06  0.2532E+06  0.2344E+04  0.2152E+03  0.0000E+00  0.0000E+00  0.0000E+00  0.0000E+00  0.0000E+00  0.0000E+00  0.0000E+00  0.0000E+00  0.0000E+00  0.0000E+00  0.0000E+00  0.0000E+00  0.0000E+00  0.0000E+00  0.0000E+00  0.0000E+00  0.0000E+00  0.2580E+04  0.5607E+03  0.0000E+00  0.0000E+00
REACH    1        0    10  0.5330E+01  0.8684E-01  0.8677E-01  0.6842E-04  0.0000E+00  0.2454E+04  0.3007E+02  0.1156E+03  0.2360E+04  0.2354E+04  0.5169E+03  0.5149E+03  0.1458E+03  0.1457E+03  0.6015E+00  0.1804E+01  0.0000E+00  0.1619E-02  0.1178E+00  0.3493E+00  0.2150E+01  0.1525E+01  0.2362E+05  0.2316E+05  0.1796E+04  0.1461E+04  0.0000E+00  0.0000E+00  0.0000E+00  0.0000E+00  0.0000E+00  0.0000E+00  0.0000E+00  0.0000E+00  0.0000E+00  0.0000E+00  0.0000E+00  0.0000E+00  0.0000E+00  0.0000E+00  0.0000E+00  0.0000E+00  0.0000E+00  0.2501E+04  0.5153E+03  0.0000E+00  0.0000E+00
REACH    2        0    10  0.1473E+01  0.2415E-01  0.2415E-01  0.2149E-05  0.0000E+00  0.5731E+03  0.5731E+03  0.4572E+04  0.6276E+03  0.6271E+03  0.1377E+03  0.1375E+03  0.1034E+03  0.1034E+03  0.0000E+00  0.3706E+00  0.0000E+00  0.0000E+00  0.1702E-01  0.5099E-01  0.1998E+00  0.1731E+00  0.3564E+04  0.3543E+04  0.7727E+03  0.5369E+03  0.0000E+00  0.0000E+00  0.0000E+00  0.0000E+00  0.0000E+00  0.0000E+00  0.0000E+00  0.0000E+00  0.0000E+00  0.0000E+00  0.0000E+00  0.0000E+00  0.0000E+00  0.0000E+00  0.0000E+00  0.0000E+00  0.0000E+00  0.7309E+03  0.1375E+03  0.0000E+00  0.0000E+00
REACH    3        0    10  0.1377E+01  0.4326E-01  0.4325E-01  0.8405E-05  0.0000E+00  0.8130E+03  0.8130E+03  0.4325E+04  0.3103E+03  0.3100E+03  0.6846E+02  0.6836E+02  0.2643E+02  0.2642E+02  0.0000E+00  0.2308E+00  0.0000E+00  0.0000E+00  0.8657E-02  0.2487E-01  0.2152E+00  0.1901E+00  0.7350E+04  0.7293E+04  0.1349E+04  0.6759E+03  0.0000E+00  0.0000E+00  0.0000E+00  0.0000E+00  0.0000E+00  0.0000E+00  0.0000E+00  0.0000E+00  0.0000E+00  0.0000E+00  0.0000E+00  0.0000E+00  0.0000E+00  0.0000E+00  0.0000E+00  0.0000E+00  0.0000E+00  0.3366E+03  0.6839E+02  0.0000E+00  0.0000E+00
REACH    1        0    11  0.5330E+01  0.1085E+00  0.1085E+00  0.4927E-04  0.0000E+00  0.1211E+05  0.4482E+02  0.1244E+03  0.1089E+05  0.1087E+05  0.2386E+04  0.2378E+04  0.2661E+03  0.2660E+03  0.1830E+01  0.5490E+01  0.0000E+00  0.4383E-02  0.5388E+00  0.1595E+01  0.4174E+02  0.3430E+02  0.2505E+06  0.2463E+06  0.2058E+04  0.1358E+04  0.0000E+00  0.0000E+00  0.0000E+00  0.0000E+00  0.0000E+00  0.0000E+00  0.0000E+00  0.0000E+00  0.0000E+00  0.0000E+00  0.0000E+00  0.0000E+00  0.0000E+00  0.0000E+00  0.0000E+00  0.0000E+00  0.0000E+00  0.1114E+05  0.2380E+04  0.0000E+00  0.0000E+00
REACH    2        0    11  0.1473E+01  0.3210E-01  0.3209E-01  0.1592E-05  0.0000E+00  0.2513E+04  0.2513E+04  0.1111E+05  0.2385E+04  0.2383E+04  0.5235E+03  0.5231E+03  0.1117E+03  0.1117E+03  0.0000E+00  0.1049E+01  0.0000E+00  0.0000E+00  0.6649E-01  0.1989E+00  0.6465E+01  0.6026E+01  0.4598E+05  0.4578E+05  0.9417E+03  0.6694E+03  0.0000E+00  0.0000E+00  0.0000E+00  0.0000E+00  0.0000E+00  0.0000E+00  0.0000E+00  0.0000E+00  0.0000E+00  0.0000E+00  0.0000E+00  0.0000E+00  0.0000E+00  0.0000E+00  0.0000E+00  0.0000E+00  0.0000E+00  0.2496E+04  0.5233E+03  0.0000E+00  0.0000E+00
REACH    3        0    11  0.1377E+01  0.4063E-01  0.4063E-01  0.4232E-05  0.0000E+00  0.3784E+04  0.3784E+04  0.1585E+05  0.1319E+04  0.1318E+04  0.2905E+03  0.2902E+03  0.5753E+02  0.5753E+02  0.0000E+00  0.7816E+00  0.0000E+00  0.0000E+00  0.2610E-01  0.7749E-01  0.3187E+01  0.2929E+01  0.6433E+05  0.6390E+05  0.1169E+04  0.4800E+03  0.0000E+00  0.0000E+00  0.0000E+00  0.0000E+00  0.0000E+00  0.0000E+00  0.0000E+00  0.0000E+00  0.0000E+00  0.0000E+00  0.0000E+00  0.0000E+00  0.0000E+00  0.0000E+00  0.0000E+00  0.0000E+00  0.0000E+00  0.1376E+04  0.2903E+03  0.0000E+00  0.0000E+00
REACH    1        0    12  0.5330E+01  0.8342E-01  0.8336E-01  0.6042E-04  0.0000E+00  0.1629E+04  0.2892E+02  0.1133E+03  0.1181E+04  0.1178E+04  0.2592E+03  0.2581E+03  0.1622E+03  0.1621E+03  0.2790E+00  0.8368E+00  0.0000E+00  0.8852E-03  0.7623E-01  0.2257E+00  0.4546E+00  0.3182E+00  0.1784E+05  0.1736E+05  0.1796E+04  0.9090E+03  0.0000E+00  0.0000E+00  0.0000E+00  0.0000E+00  0.0000E+00  0.0000E+00  0.0000E+00  0.0000E+00  0.0000E+00  0.0000E+00  0.0000E+00  0.0000E+00  0.0000E+00  0.0000E+00  0.0000E+00  0.0000E+00  0.0000E+00  0.1341E+04  0.2583E+03  0.0000E+00  0.0000E+00
REACH    2        0    12  0.1473E+01  0.2723E-01  0.2723E-01  0.3139E-05  0.0000E+00  0.3506E+03  0.3506E+03  0.1726E+04  0.3052E+03  0.3050E+03  0.6704E+02  0.6697E+02  0.5233E+02  0.5232E+02  0.0000E+00  0.1639E+00  0.0000E+00  0.0000E+00  0.9375E-02  0.2809E-01  0.1086E+00  0.9979E-01  0.2272E+04  0.2260E+04  0.8636E+03  0.6974E+03  0.0000E+00  0.0000E+00  0.0000E+00  0.0000E+00  0.0000E+00  0.0000E+00  0.0000E+00  0.0000E+00  0.0000E+00  0.0000E+00  0.0000E+00  0.0000E+00  0.0000E+00  0.0000E+00  0.0000E+00  0.0000E+00  0.0000E+00  0.3575E+03  0.6700E+02  0.0000E+00  0.0000E+00
REACH    3        0    12  0.1377E+01  0.3174E-01  0.3173E-01  0.5122E-05  0.0000E+00  0.6190E+03  0.6190E+03  0.5385E+04  0.1251E+03  0.1250E+03  0.2763E+02  0.2758E+02  0.4229E+02  0.4228E+02  0.0000E+00  0.1151E+00  0.0000E+00  0.0000E+00  0.3545E-02  0.1059E-01  0.4940E-01  0.4259E-01  0.1055E+05  0.1044E+05  0.9772E+03  0.3677E+03  0.0000E+00  0.0000E+00  0.0000E+00  0.0000E+00  0.0000E+00  0.0000E+00  0.0000E+00  0.0000E+00  0.0000E+00  0.0000E+00  0.0000E+00  0.0000E+00  0.0000E+00  0.0000E+00  0.0000E+00  0.0000E+00  0.0000E+00  0.1673E+03  0.2759E+02  0.0000E+00  0.0000E+00
REACH    1        0  1989  0.5330E+01  0.8583E-01  0.8574E-01  0.9219E-04  0.0000E+00  0.5673E+05  0.3093E+03  0.1096E+03  0.6018E+05  0.6003E+05  0.1316E+05  0.1311E+05  0.1853E+04  0.1851E+04  0.2210E+02  0.6626E+02  0.0000E+00  0.5828E-01  0.4857E+01  0.1452E+02  0.1487E+03  0.1187E+03  0.9289E+06  0.9098E+06  0.1548E+05  0.1042E+05  0.0000E+00  0.0000E+00  0.0000E+00  0.0000E+00  0.0000E+00  0.0000E+00  0.0000E+00  0.0000E+00  0.0000E+00  0.0000E+00  0.0000E+00  0.0000E+00  0.0000E+00  0.0000E+00  0.0000E+00  0.0000E+00  0.0000E+00  0.6195E+05  0.1313E+05  0.0000E+00  0.0000E+00
REACH    2        0  1989  0.1473E+01  0.2137E-01  0.2137E-01  0.8071E-05  0.0000E+00  0.1027E+05  0.1027E+05  0.4976E+04  0.1622E+05  0.1621E+05  0.3541E+04  0.3538E+04  0.6392E+03  0.6391E+03  0.0000E+00  0.7396E+01  0.0000E+00  0.0000E+00  0.4754E+00  0.1424E+01  0.3116E+02  0.2908E+02  0.1506E+06  0.1500E+06  0.6374E+04  0.4532E+04  0.0000E+00  0.0000E+00  0.0000E+00  0.0000E+00  0.0000E+00  0.0000E+00  0.0000E+00  0.0000E+00  0.0000E+00  0.0000E+00  0.0000E+00  0.0000E+00  0.0000E+00  0.0000E+00  0.0000E+00  0.0000E+00  0.0000E+00  0.1685E+05  0.3539E+04  0.0000E+00  0.0000E+00
REACH    3        0  1989  0.1377E+01  0.4410E-01  0.4409E-01  0.1286E-04  0.0000E+00  0.3390E+05  0.3390E+05  0.1472E+05  0.2330E+05  0.2328E+05  0.5111E+04  0.5104E+04  0.6622E+03  0.6620E+03  0.0000E+00  0.1470E+02  0.0000E+00  0.0000E+00  0.8700E+00  0.2594E+01  0.7240E+02  0.6702E+02  0.5566E+06  0.5530E+06  0.1236E+05  0.5259E+04  0.0000E+00  0.0000E+00  0.0000E+00  0.0000E+00  0.0000E+00  0.0000E+00  0.0000E+00  0.0000E+00  0.0000E+00  0.0000E+00  0.0000E+00  0.0000E+00  0.0000E+00  0.0000E+00  0.0000E+00  0.0000E+00  0.0000E+00  0.2396E+05  0.5107E+04  0.0000E+00  0.0000E+00
REACH    1        0     1  0.5330E+01  0.1970E+00  0.1969E+00  0.3504E-04  0.0000E+00  0.6657E+04  0.9650E+02  0.1732E+03  0.7719E+04  0.7700E+04  0.1692E+04  0.1686E+04  0.3387E+03  0.3387E+03  0.2044E+01  0.6132E+01  0.0000E+00  0.5839E-02  0.5341E+00  0.1592E+01  0.5988E+01  0.4800E+01  0.7108E+05  0.6979E+05  0.4014E+04  0.2691E+04  0.0000E+00  0.0000E+00  0.0000E+00  0.0000E+00  0.0000E+00  0.0000E+00  0.0000E+00  0.0000E+00  0.0000E+00  0.0000E+00  0.0000E+00  0.0000E+00  0.0000E+00  0.0000E+00  0.0000E+00  0.0000E+00  0.0000E+00  0.8045E+04  0.1687E+04  0.0000E+00  0.0000E+00
REACH    2        0     1  0.1473E+01  0.6177E-01  0.6177E-01  0.9661E-06  0.0000E+00  0.1971E+04  0.1971E+04  0.8533E+04  0.2342E+04  0.2340E+04  0.5135E+03  0.5130E+03  0.8084E+02  0.8084E+02  0.0000E+00  0.1099E+01  0.0000E+00  0.0000E+00  0.7265E-01  0.2177E+00  0.1182E+01  0.1096E+01  0.1642E+05  0.1634E+05  0.1910E+04  0.1215E+04  0.0000E+00  0.0000E+00  0.0000E+00  0.0000E+00  0.0000E+00  0.0000E+00  0.0000E+00  0.0000E+00  0.0000E+00  0.0000E+00  0.0000E+00  0.0000E+00  0.0000E+00  0.0000E+00  0.0000E+00  0.0000E+00  0.0000E+00  0.2422E+04  0.5133E+03  0.0000E+00  0.0000E+00
REACH    3        0     1  0.1377E+01  0.6605E-01  0.6605E-01  0.1443E-05  0.0000E+00  0.2386E+04  0.2386E+04  0.1046E+05  0.1364E+04  0.1363E+04  0.2995E+03  0.2991E+03  0.6691E+02  0.6691E+02  0.0000E+00  0.9454E+00  0.0000E+00  0.0000E+00  0.4476E-01  0.1339E+00  0.8537E+00  0.7673E+00  0.2556E+05  0.2538E+05  0.1995E+04  0.7823E+03  0.0000E+00  0.0000E+00  0.0000E+00  0.0000E+00  0.0000E+00  0.0000E+00  0.0000E+00  0.0000E+00  0.0000E+00  0.0000E+00  0.0000E+00  0.0000E+00  0.0000E+00  0.0000E+00  0.0000E+00  0.0000E+00  0.0000E+00  0.1431E+04  0.2992E+03  0.0000E+00  0.0000E+00
REACH    1        0     2  0.5330E+01  0.1567E+00  0.1566E+00  0.5105E-04  0.0000E+00  0.9465E+04  0.6325E+02  0.1573E+03  0.6717E+04  0.6702E+04  0.1474E+04  0.1469E+04  0.1451E+03  0.1450E+03  0.2020E+01  0.6059E+01  0.0000E+00  0.4600E-02  0.4429E+00  0.1313E+01  0.2428E+02  0.2035E+02  0.1889E+06  0.1859E+06  0.2767E+04  0.1682E+04  0.0000E+00  0.0000E+00  0.0000E+00  0.0000E+00  0.0000E+00  0.0000E+00  0.0000E+00  0.0000E+00  0.0000E+00  0.0000E+00  0.0000E+00  0.0000E+00  0.0000E+00  0.0000E+00  0.0000E+00  0.0000E+00  0.0000E+00  0.6853E+04  0.1471E+04  0.0000E+00  0.0000E+00
REACH    2        0     2  0.1473E+01  0.5551E-01  0.5551E-01  0.1290E-05  0.0000E+00  0.3415E+04  0.3415E+04  0.1394E+05  0.2626E+04  0.2625E+04  0.5766E+03  0.5761E+03  0.4622E+02  0.4622E+02  0.0000E+00  0.1141E+01  0.0000E+00  0.0000E+00  0.6929E-01  0.2070E+00  0.7096E+01  0.6678E+01  0.5742E+05  0.5715E+05  0.1467E+04  0.9658E+03  0.0000E+00  0.0000E+00  0.0000E+00  0.0000E+00  0.0000E+00  0.0000E+00  0.0000E+00  0.0000E+00  0.0000E+00  0.0000E+00  0.0000E+00  0.0000E+00  0.0000E+00  0.0000E+00  0.0000E+00  0.0000E+00  0.0000E+00  0.2672E+04  0.5763E+03  0.0000E+00  0.0000E+00
REACH    3        0     2  0.1377E+01  0.5028E-01  0.5028E-01  0.5518E-05  0.0000E+00  0.3584E+04  0.3584E+04  0.1532E+05  0.1358E+04  0.1357E+04  0.2986E+03  0.2982E+03  0.2655E+02  0.2655E+02  0.0000E+00  0.8793E+00  0.0000E+00  0.0000E+00  0.3161E-01  0.9402E-01  0.4723E+01  0.4326E+01  0.6743E+05  0.6697E+05  0.1298E+04  0.5473E+03  0.0000E+00  0.0000E+00  0.0000E+00  0.0000E+00  0.0000E+00  0.0000E+00  0.0000E+00  0.0000E+00  0.0000E+00  0.0000E+00  0.0000E+00  0.0000E+00  0.0000E+00  0.0000E+00  0.0000E+00  0.0000E+00  0.0000E+00  0.1384E+04  0.2983E+03  0.0000E+00  0.0000E+00
REACH    1        0     3  0.5330E+01  0.1290E+00  0.1290E+00  0.8335E-04  0.0000E+00  0.4612E+04  0.5522E+02  0.1404E+03  0.3186E+04  0.3178E+04  0.6999E+03  0.6975E+03  0.1100E+03  0.1100E+03  0.1001E+01  0.3001E+01  0.0000E+00  0.2659E-02  0.2187E+00  0.6470E+00  0.3442E+01  0.2771E+01  0.5890E+05  0.5785E+05  0.3015E+04  0.2400E+04  0.0000E+00  0.0000E+00  0.0000E+00  0.0000E+00  0.0000E+00  0.0000E+00  0.0000E+00  0.0000E+00  0.0000E+00  0.0000E+00  0.0000E+00  0.0000E+00  0.0000E+00  0.0000E+00  0.0000E+00  0.0000E+00  0.0000E+00  0.3291E+04  0.6981E+03  0.0000E+00  0.0000E+00
REACH    2        0     3  0.1473E+01  0.4714E-01  0.4713E-01  0.4707E-05  0.0000E+00  0.1984E+04  0.1984E+04  0.7957E+04  0.1432E+04  0.1432E+04  0.3149E+03  0.3147E+03  0.3685E+02  0.3684E+02  0.0000E+00  0.6335E+00  0.0000E+00  0.0000E+00  0.3502E-01  0.1046E+00  0.1456E+01  0.1356E+01  0.2225E+05  0.2215E+05  0.1473E+04  0.1196E+04  0.0000E+00  0.0000E+00  0.0000E+00  0.0000E+00  0.0000E+00  0.0000E+00  0.0000E+00  0.0000E+00  0.0000E+00  0.0000E+00  0.0000E+00  0.0000E+00  0.0000E+00  0.0000E+00  0.0000E+00  0.0000E+00  0.0000E+00  0.1469E+04  0.3148E+03  0.0000E+00  0.0000E+00
REACH    3        0     3  0.1377E+01  0.4012E-01  0.4011E-01  0.1069E-04  0.0000E+00  0.1453E+04  0.1453E+04  0.6952E+04  0.5157E+03  0.5152E+03  0.1136E+03  0.1134E+03  0.2304E+02  0.2303E+02  0.0000E+00  0.3670E+00  0.0000E+00  0.0000E+00  0.1648E-01  0.4892E-01  0.6430E+00  0.5715E+00  0.2004E+05  0.1988E+05  0.1222E+04  0.5774E+03  0.0000E+00  0.0000E+00  0.0000E+00  0.0000E+00  0.0000E+00  0.0000E+00  0.0000E+00  0.0000E+00  0.0000E+00  0.0000E+00  0.0000E+00  0.0000E+00  0.0000E+00  0.0000E+00  0.0000E+00  0.0000E+00  0.0000E+00  0.5386E+03  0.1135E+03  0.0000E+00  0.0000E+00
REACH    1        0     4  0.5330E+01  0.9454E-01  0.9442E-01  0.1188E-03  0.0000E+00  0.7890E+04  0.3708E+02  0.1185E+03  0.4279E+04  0.4270E+04  0.9407E+03  0.9379E+03  0.4793E+02  0.4786E+02  0.1156E+01  0.3467E+01  0.0000E+00  0.2559E-02  0.2473E+00  0.7296E+00  0.2530E+02  0.2216E+02  0.2028E+06  0.1999E+06  0.1955E+04  0.1642E+04  0.0000E+00  0.0000E+00  0.0000E+00  0.0000E+00  0.0000E+00  0.0000E+00  0.0000E+00  0.0000E+00  0.0000E+00  0.0000E+00  0.0000E+00  0.0000E+00  0.0000E+00  0.0000E+00  0.0000E+00  0.0000E+00  0.0000E+00  0.4321E+04  0.9386E+03  0.0000E+00  0.0000E+00
REACH    2        0     4  0.1473E+01  0.3620E-01  0.3619E-01  0.9728E-05  0.0000E+00  0.2906E+04  0.2906E+04  0.8321E+04  0.1659E+04  0.1658E+04  0.3651E+03  0.3648E+03  0.2248E+02  0.2247E+02  0.0000E+00  0.7053E+00  0.0000E+00  0.0000E+00  0.3956E-01  0.1179E+00  0.7788E+01  0.7463E+01  0.6413E+05  0.6386E+05  0.1040E+04  0.7382E+03  0.0000E+00  0.0000E+00  0.0000E+00  0.0000E+00  0.0000E+00  0.0000E+00  0.0000E+00  0.0000E+00  0.0000E+00  0.0000E+00  0.0000E+00  0.0000E+00  0.0000E+00  0.0000E+00  0.0000E+00  0.0000E+00  0.0000E+00  0.1681E+04  0.3649E+03  0.0000E+00  0.0000E+00
REACH    3        0     4  0.1377E+01  0.2650E-01  0.2649E-01  0.1722E-04  0.0000E+00  0.2867E+04  0.2867E+04  0.9673E+04  0.7467E+03  0.7461E+03  0.1646E+03  0.1644E+03  0.8604E+01  0.8600E+01  0.0000E+00  0.4507E+00  0.0000E+00  0.0000E+00  0.1567E-01  0.4647E-01  0.4354E+01  0.4050E+01  0.6985E+05  0.6944E+05  0.7426E+03  0.3619E+03  0.0000E+00  0.0000E+00  0.0000E+00  0.0000E+00  0.0000E+00  0.0000E+00  0.0000E+00  0.0000E+00  0.0000E+00  0.0000E+00  0.0000E+00  0.0000E+00  0.0000E+00  0.0000E+00  0.0000E+00  0.0000E+00  0.0000E+00  0.7552E+03  0.1645E+03  0.0000E+00  0.0000E+00
REACH    1        0     5  0.5330E+01  0.3837E-01  0.3822E-01  0.1509E-03  0.0000E+00  0.8657E+01  0.8172E+01  0.7538E+02  0.1177E-01  0.1168E-01  0.2754E-02  0.2715E-02  0.1020E+01  0.1017E+01  0.1089E-01  0.3254E-01  0.0000E+00  0.4499E-04  0.9261E-05  0.0000E+00  0.1372E-06  0.0000E+00  0.6746E+02  0.6455E+02  0.1150E+04  0.1129E+04  0.0000E+00  0.0000E+00  0.0000E+00  0.0000E+00  0.0000E+00  0.0000E+00  0.0000E+00  0.0000E+00  0.0000E+00  0.0000E+00  0.0000E+00  0.0000E+00  0.0000E+00  0.0000E+00  0.0000E+00  0.0000E+00  0.0000E+00  0.1061E+01  0.2715E-02  0.0000E+00  0.0000E+00
REACH    2        0     5  0.1473E+01  0.1529E-01  0.1528E-01  0.1618E-04  0.0000E+00  0.2319E-01  0.2319E-01  0.4559E+00  0.1137E-01  0.1134E-01  0.2505E-02  0.2486E-02  0.1853E+00  0.1851E+00  0.0000E+00  0.4725E-02  0.0000E+00  0.0000E+00  0.5805E-05  0.0000E+00  0.2539E-06  0.1372E-06  0.5426E-01  0.5362E-01  0.4908E+03  0.4762E+03  0.0000E+00  0.0000E+00  0.0000E+00  0.0000E+00  0.0000E+00  0.0000E+00  0.0000E+00  0.0000E+00  0.0000E+00  0.0000E+00  0.0000E+00  0.0000E+00  0.0000E+00  0.0000E+00  0.0000E+00  0.0000E+00  0.0000E+00  0.2012E+00  0.2486E-02  0.0000E+00  0.0000E+00
REACH    3        0     5  0.1377E+01  0.7646E-02  0.7625E-02  0.2133E-04  0.0000E+00  0.8634E+01  0.8634E+01  0.3111E+03  0.6843E-04  0.6254E-04  0.1746E-03  0.1699E-03  0.3715E+00  0.3706E+00  0.0000E+00  0.6166E-02  0.0000E+00  0.0000E+00  0.4572E-05  0.0000E+00  0.3112E-07  0.0000E+00  0.6900E+02  0.6741E+02  0.2407E+03  0.1980E+03  0.0000E+00  0.0000E+00  0.0000E+00  0.0000E+00  0.0000E+00  0.0000E+00  0.0000E+00  0.0000E+00  0.0000E+00  0.0000E+00  0.0000E+00  0.0000E+00  0.0000E+00  0.0000E+00  0.0000E+00  0.0000E+00  0.0000E+00  0.3768E+00  0.1699E-03  0.0000E+00  0.0000E+00
REACH    1        0     6  0.5330E+01  0.2829E-01  0.2817E-01  0.1237E-03  0.0000E+00  0.1087E-05  0.4258E+01  0.5558E+02  0.7396E-05  0.0000E+00  0.3044E-04  0.0000E+00  0.8732E+00  0.8700E+00  0.1003E-01  0.2997E-01  0.0000E+00  0.9823E-04  0.8203E-05  0.0000E+00  0.4635E-17  0.0000E+00  0.0000E+00  0.0000E+00  0.8628E+03  0.8640E+03  0.0000E+00  0.0000E+00  0.0000E+00  0.0000E+00  0.0000E+00  0.0000E+00  0.0000E+00  0.0000E+00  0.0000E+00  0.0000E+00  0.0000E+00  0.0000E+00  0.0000E+00  0.0000E+00  0.0000E+00  0.0000E+00  0.0000E+00  0.9001E+00  0.0000E+00  0.0000E+00  0.0000E+00
REACH    2        0     6  0.1473E+01  0.1278E-01  0.1277E-01  0.1317E-04  0.0000E+00  0.3805E-06  0.3805E-06  0.1180E-04  0.4322E-05  0.0000E+00  0.1297E-04  0.0000E+00  0.2069E+00  0.2067E+00  0.0000E+00  0.4352E-02  0.0000E+00  0.0000E+00  0.4327E-05  0.0000E+00  0.6866E-18  0.0000E+00  0.0000E+00  0.0000E+00  0.4035E+03  0.3915E+03  0.0000E+00  0.0000E+00  0.0000E+00  0.0000E+00  0.0000E+00  0.0000E+00  0.0000E+00  0.0000E+00  0.0000E+00  0.0000E+00  0.0000E+00  0.0000E+00  0.0000E+00  0.0000E+00  0.0000E+00  0.0000E+00  0.0000E+00  0.2110E+00  0.0000E+00  0.0000E+00  0.0000E+00
REACH    3        0     6  0.1377E+01  0.3376E-02  0.3358E-02  0.1742E-04  0.0000E+00  0.4506E-06  0.4506E-06  0.6967E-04  0.4006E-05  0.3922E-06  0.1202E-04  0.9428E-05  0.2621E+00  0.2609E+00  0.0000E+00  0.5682E-02  0.0000E+00  0.0000E+00  0.4010E-05  0.1192E-05  0.4308E-16  0.0000E+00  0.0000E+00  0.0000E+00  0.1054E+03  0.1034E+03  0.0000E+00  0.0000E+00  0.0000E+00  0.0000E+00  0.0000E+00  0.0000E+00  0.0000E+00  0.0000E+00  0.0000E+00  0.0000E+00  0.0000E+00  0.0000E+00  0.0000E+00  0.0000E+00  0.0000E+00  0.0000E+00  0.0000E+00  0.2666E+00  0.1062E-04  0.0000E+00  0.0000E+00
REACH    1        0     7  0.5330E+01  0.1960E-01  0.1947E-01  0.1274E-03  0.0000E+00  0.5611E+00  0.3443E+01  0.6683E+02  0.1010E-04  0.0000E+00  0.4127E-04  0.8480E-05  0.5316E+00  0.5286E+00  0.1004E-01  0.2991E-01  0.0000E+00  0.8874E-04  0.1430E-04  0.0000E+00  0.9365E-17  0.0000E+00  0.2159E+01  0.1983E+01  0.6190E+03  0.6182E+03  0.0000E+00  0.0000E+00  0.0000E+00  0.0000E+00  0.0000E+00  0.0000E+00  0.0000E+00  0.0000E+00  0.0000E+00  0.0000E+00  0.0000E+00  0.0000E+00  0.0000E+00  0.0000E+00  0.0000E+00  0.0000E+00  0.0000E+00  0.5586E+00  0.8480E-05  0.0000E+00  0.0000E+00
REACH    2        0     7  0.1473E+01  0.9259E-02  0.9245E-02  0.1341E-04  0.0000E+00  0.3932E-06  0.3932E-06  0.1622E-04  0.4466E-05  0.0000E+00  0.1340E-04  0.0000E+00  0.1708E+00  0.1706E+00  0.0000E+00  0.4343E-02  0.0000E+00  0.0000E+00  0.4471E-05  0.0000E+00  0.1343E-17  0.0000E+00  0.0000E+00  0.0000E+00  0.3038E+03  0.2946E+03  0.0000E+00  0.0000E+00  0.0000E+00  0.0000E+00  0.0000E+00  0.0000E+00  0.0000E+00  0.0000E+00  0.0000E+00  0.0000E+00  0.0000E+00  0.0000E+00  0.0000E+00  0.0000E+00  0.0000E+00  0.0000E+00  0.0000E+00  0.1749E+00  0.0000E+00  0.0000E+00  0.0000E+00
REACH    3        0     7  0.1377E+01  0.1704E-02  0.1685E-02  0.1817E-04  0.0000E+00  0.5611E+00  0.5611E+00  0.7289E+02  0.4504E-05  0.2858E-05  0.2011E-04  0.1956E-04  0.2178E+00  0.2158E+00  0.0000E+00  0.5693E-02  0.0000E+00  0.0000E+00  0.4143E-05  0.7060E-05  0.1455E-08  0.0000E+00  0.2262E+01  0.2159E+01  0.5494E+02  0.5182E+02  0.0000E+00  0.0000E+00  0.0000E+00  0.0000E+00  0.0000E+00  0.0000E+00  0.0000E+00  0.0000E+00  0.0000E+00  0.0000E+00  0.0000E+00  0.0000E+00  0.0000E+00  0.0000E+00  0.0000E+00  0.0000E+00  0.0000E+00  0.2215E+00  0.2662E-04  0.0000E+00  0.0000E+00
REACH    1        0     8  0.5330E+01  0.1912E-01  0.1901E-01  0.1057E-03  0.0000E+00  0.4634E+02  0.3452E+01  0.6394E+02  0.5831E-01  0.5785E-01  0.1330E-01  0.1315E-01  0.1523E+01  0.1517E+01  0.1040E-01  0.3101E-01  0.0000E+00  0.9239E-04  0.2344E-04  0.3450E-04  0.1315E-04  0.0000E+00  0.6885E+03  0.6531E+03  0.5511E+03  0.4296E+03  0.0000E+00  0.0000E+00  0.0000E+00  0.0000E+00  0.0000E+00  0.0000E+00  0.0000E+00  0.0000E+00  0.0000E+00  0.0000E+00  0.0000E+00  0.0000E+00  0.0000E+00  0.0000E+00  0.0000E+00  0.0000E+00  0.0000E+00  0.1606E+01  0.1319E-01  0.0000E+00  0.0000E+00
REACH    2        0     8  0.1473E+01  0.8468E-02  0.8457E-02  0.1111E-04  0.0000E+00  0.1147E+00  0.1147E+00  0.2655E+01  0.5841E-01  0.5828E-01  0.1281E-01  0.1276E-01  0.3227E+00  0.3223E+00  0.0000E+00  0.4523E-02  0.0000E+00  0.0000E+00  0.8434E-05  0.1106E-04  0.2020E-04  0.1315E-04  0.1065E+01  0.1053E+01  0.2753E+03  0.2659E+03  0.0000E+00  0.0000E+00  0.0000E+00  0.0000E+00  0.0000E+00  0.0000E+00  0.0000E+00  0.0000E+00  0.0000E+00  0.0000E+00  0.0000E+00  0.0000E+00  0.0000E+00  0.0000E+00  0.0000E+00  0.0000E+00  0.0000E+00  0.3851E+00  0.1277E-01  0.0000E+00  0.0000E+00
REACH    3        0     8  0.1377E+01  0.2855E-02  0.2840E-02  0.1510E-04  0.0000E+00  0.4623E+02  0.4623E+02  0.5962E+04  0.3040E-04  0.2918E-04  0.5254E-03  0.5157E-03  0.4690E+00  0.4662E+00  0.0000E+00  0.5879E-02  0.0000E+00  0.0000E+00  0.4171E-05  0.5133E-05  0.4875E-06  0.0000E+00  0.7214E+03  0.6875E+03  0.8927E+02  0.4167E+02  0.0000E+00  0.0000E+00  0.0000E+00  0.0000E+00  0.0000E+00  0.0000E+00  0.0000E+00  0.0000E+00  0.0000E+00  0.0000E+00  0.0000E+00  0.0000E+00  0.0000E+00  0.0000E+00  0.0000E+00  0.0000E+00  0.0000E+00  0.4721E+00  0.5208E-03  0.0000E+00  0.0000E+00
REACH    1        0     9  0.5330E+01  0.2079E-01  0.2070E-01  0.8564E-04  0.0000E+00  0.1279E+03  0.3279E+01  0.5995E+02  0.1934E+00  0.1911E+00  0.4235E-01  0.4167E-01  0.1162E+01  0.1157E+01  0.1059E-01  0.3163E-01  0.0000E+00  0.1074E-03  0.5655E-04  0.1532E-03  0.3153E-04  0.0000E+00  0.2745E+04  0.2577E+04  0.5287E+03  0.2749E+03  0.0000E+00  0.0000E+00  0.0000E+00  0.0000E+00  0.0000E+00  0.0000E+00  0.0000E+00  0.0000E+00  0.0000E+00  0.0000E+00  0.0000E+00  0.0000E+00  0.0000E+00  0.0000E+00  0.0000E+00  0.0000E+00  0.0000E+00  0.1380E+01  0.4182E-01  0.0000E+00  0.0000E+00
REACH    2        0     9  0.1473E+01  0.8848E-02  0.8839E-02  0.8978E-05  0.0000E+00  0.2626E+00  0.2626E+00  0.1024E+02  0.1940E+00  0.1934E+00  0.4248E-01  0.4232E-01  0.2780E+00  0.2777E+00  0.0000E+00  0.4709E-02  0.0000E+00  0.0000E+00  0.2076E-04  0.4874E-04  0.7366E-04  0.3153E-04  0.2354E+01  0.2316E+01  0.2759E+03  0.2652E+03  0.0000E+00  0.0000E+00  0.0000E+00  0.0000E+00  0.0000E+00  0.0000E+00  0.0000E+00  0.0000E+00  0.0000E+00  0.0000E+00  0.0000E+00  0.0000E+00  0.0000E+00  0.0000E+00  0.0000E+00  0.0000E+00  0.0000E+00  0.4759E+00  0.4237E-01  0.0000E+00  0.0000E+00
REACH    3        0     9  0.1377E+01  0.4907E-02  0.4895E-02  0.1218E-04  0.0000E+00  0.1276E+03  0.1276E+03  0.1159E+05  0.2418E-04  0.2270E-04  0.1202E-04  0.6722E-05  0.4084E+00  0.4073E+00  0.0000E+00  0.5884E-02  0.0000E+00  0.0000E+00  0.4114E-05  0.7990E-06  0.1109E-05  0.0000E+00  0.2841E+04  0.2743E+04  0.1447E+03  0.5254E+02  0.0000E+00  0.0000E+00  0.0000E+00  0.0000E+00  0.0000E+00  0.0000E+00  0.0000E+00  0.0000E+00  0.0000E+00  0.0000E+00  0.0000E+00  0.0000E+00  0.0000E+00  0.0000E+00  0.0000E+00  0.0000E+00  0.0000E+00  0.4132E+00  0.7521E-05  0.0000E+00  0.0000E+00
REACH    1        0    10  0.5330E+01  0.5361E-01  0.5354E-01  0.6928E-04  0.0000E+00  0.5382E+03  0.1542E+02  0.8755E+02  0.1718E+03  0.1713E+03  0.3785E+02  0.3768E+02  0.3208E+02  0.3205E+02  0.8035E-01  0.2409E+00  0.0000E+00  0.2747E-03  0.1269E-01  0.3753E-01  0.2468E-01  0.1647E-01  0.5993E+04  0.5778E+04  0.1277E+04  0.8065E+03  0.0000E+00  0.0000E+00  0.0000E+00  0.0000E+00  0.0000E+00  0.0000E+00  0.0000E+00  0.0000E+00  0.0000E+00  0.0000E+00  0.0000E+00  0.0000E+00  0.0000E+00  0.0000E+00  0.0000E+00  0.0000E+00  0.0000E+00  0.2036E+03  0.3772E+02  0.0000E+00  0.0000E+00
REACH    2        0    10  0.1473E+01  0.2186E-01  0.2186E-01  0.5218E-05  0.0000E+00  0.2334E+03  0.2334E+03  0.1423E+04  0.1030E+03  0.1030E+03  0.2271E+02  0.2268E+02  0.1802E+02  0.1801E+02  0.0000E+00  0.5408E-01  0.0000E+00  0.0000E+00  0.2384E-02  0.7128E-02  0.1772E-01  0.1594E-01  0.9915E+03  0.9868E+03  0.6975E+03  0.5897E+03  0.0000E+00  0.0000E+00  0.0000E+00  0.0000E+00  0.0000E+00  0.0000E+00  0.0000E+00  0.0000E+00  0.0000E+00  0.0000E+00  0.0000E+00  0.0000E+00  0.0000E+00  0.0000E+00  0.0000E+00  0.0000E+00  0.0000E+00  0.1210E+03  0.2269E+02  0.0000E+00  0.0000E+00
REACH    3        0    10  0.1377E+01  0.1585E-01  0.1584E-01  0.9532E-05  0.0000E+00  0.2543E+03  0.2543E+03  0.6449E+04  0.2552E+02  0.2549E+02  0.5640E+01  0.5631E+01  0.9478E+01  0.9475E+01  0.0000E+00  0.2627E-01  0.0000E+00  0.0000E+00  0.9562E-03  0.2849E-02  0.4891E-02  0.4122E-02  0.4887E+04  0.4797E+04  0.4890E+03  0.1999E+03  0.0000E+00  0.0000E+00  0.0000E+00  0.0000E+00  0.0000E+00  0.0000E+00  0.0000E+00  0.0000E+00  0.0000E+00  0.0000E+00  0.0000E+00  0.0000E+00  0.0000E+00  0.0000E+00  0.0000E+00  0.0000E+00  0.0000E+00  0.3500E+02  0.5634E+01  0.0000E+00  0.0000E+00
REACH    1        0    11  0.5330E+01  0.1611E+00  0.1610E+00  0.5749E-04  0.0000E+00  0.1380E+05  0.7178E+02  0.1476E+03  0.7261E+04  0.7244E+04  0.1598E+04  0.1593E+04  0.2331E+03  0.2330E+03  0.1197E+01  0.3589E+01  0.0000E+00  0.3106E-02  0.3848E+00  0.1132E+01  0.2115E+02  0.1745E+02  0.2518E+06  0.2476E+06  0.2911E+04  0.1236E+04  0.0000E+00  0.0000E+00  0.0000E+00  0.0000E+00  0.0000E+00  0.0000E+00  0.0000E+00  0.0000E+00  0.0000E+00  0.0000E+00  0.0000E+00  0.0000E+00  0.0000E+00  0.0000E+00  0.0000E+00  0.0000E+00  0.0000E+00  0.7481E+04  0.1594E+04  0.0000E+00  0.0000E+00
REACH    2        0    11  0.1473E+01  0.5071E-01  0.5071E-01  0.1448E-05  0.0000E+00  0.3040E+04  0.3040E+04  0.1308E+05  0.1454E+04  0.1453E+04  0.3204E+03  0.3201E+03  0.6616E+02  0.6616E+02  0.0000E+00  0.6539E+00  0.0000E+00  0.0000E+00  0.4175E-01  0.1246E+00  0.2611E+01  0.2439E+01  0.4447E+05  0.4427E+05  0.1481E+04  0.9437E+03  0.0000E+00  0.0000E+00  0.0000E+00  0.0000E+00  0.0000E+00  0.0000E+00  0.0000E+00  0.0000E+00  0.0000E+00  0.0000E+00  0.0000E+00  0.0000E+00  0.0000E+00  0.0000E+00  0.0000E+00  0.0000E+00  0.0000E+00  0.1520E+04  0.3202E+03  0.0000E+00  0.0000E+00
REACH    3        0    11  0.1377E+01  0.4979E-01  0.4979E-01  0.3112E-05  0.0000E+00  0.3641E+04  0.3641E+04  0.1656E+05  0.7847E+03  0.7840E+03  0.1734E+03  0.1732E+03  0.5762E+02  0.5761E+02  0.0000E+00  0.5428E+00  0.0000E+00  0.0000E+00  0.2236E-01  0.6635E-01  0.1422E+01  0.1289E+01  0.5600E+05  0.5558E+05  0.1412E+04  0.4128E+03  0.0000E+00  0.0000E+00  0.0000E+00  0.0000E+00  0.0000E+00  0.0000E+00  0.0000E+00  0.0000E+00  0.0000E+00  0.0000E+00  0.0000E+00  0.0000E+00  0.0000E+00  0.0000E+00  0.0000E+00  0.0000E+00  0.0000E+00  0.8421E+03  0.1733E+03  0.0000E+00  0.0000E+00
REACH    1        0    12  0.5330E+01  0.1898E+00  0.1898E+00  0.1512E-04  0.0000E+00  0.1945E+05  0.9500E+02  0.1616E+03  0.6578E+04  0.6568E+04  0.1450E+04  0.1447E+04  0.2326E+03  0.2325E+03  0.1070E+01  0.3210E+01  0.0000E+00  0.1679E-02  0.4114E+00  0.1191E+01  0.7659E+02  0.7072E+02  0.7308E+06  0.7221E+06  0.4252E+04  0.2461E+04  0.0000E+00  0.0000E+00  0.0000E+00  0.0000E+00  0.0000E+00  0.0000E+00  0.0000E+00  0.0000E+00  0.0000E+00  0.0000E+00  0.0000E+00  0.0000E+00  0.0000E+00  0.0000E+00  0.0000E+00  0.0000E+00  0.0000E+00  0.6804E+04  0.1448E+04  0.0000E+00  0.0000E+00
REACH    2        0    12  0.1473E+01  0.5134E-01  0.5134E-01  0.9985E-06  0.0000E+00  0.5551E+04  0.5551E+04  0.8373E+04  0.1815E+04  0.1814E+04  0.4005E+03  0.4003E+03  0.4159E+02  0.4158E+02  0.0000E+00  0.6499E+00  0.0000E+00  0.0000E+00  0.4826E-01  0.1431E+00  0.2163E+02  0.2095E+02  0.2068E+06  0.2061E+06  0.1516E+04  0.1162E+04  0.0000E+00  0.0000E+00  0.0000E+00  0.0000E+00  0.0000E+00  0.0000E+00  0.0000E+00  0.0000E+00  0.0000E+00  0.0000E+00  0.0000E+00  0.0000E+00  0.0000E+00  0.0000E+00  0.0000E+00  0.0000E+00  0.0000E+00  0.1856E+04  0.4004E+03  0.0000E+00  0.0000E+00
REACH    3        0    12  0.1377E+01  0.5607E-01  0.5606E-01  0.1491E-05  0.0000E+00  0.6451E+04  0.6451E+04  0.9460E+04  0.9022E+03  0.9017E+03  0.1995E+03  0.1993E+03  0.5113E+02  0.5113E+02  0.0000E+00  0.4199E+00  0.0000E+00  0.0000E+00  0.2469E-01  0.7241E-01  0.1108E+02  0.1064E+02  0.2409E+06  0.2398E+06  0.1619E+04  0.8352E+03  0.0000E+00  0.0000E+00  0.0000E+00  0.0000E+00  0.0000E+00  0.0000E+00  0.0000E+00  0.0000E+00  0.0000E+00  0.0000E+00  0.0000E+00  0.0000E+00  0.0000E+00  0.0000E+00  0.0000E+00  0.0000E+00  0.0000E+00  0.9533E+03  0.1994E+03  0.0000E+00  0.0000E+00
REACH    1        0  1990  0.5330E+01  0.9154E-01  0.9146E-01  0.8531E-04  0.0000E+00  0.6260E+05  0.4569E+03  0.1083E+03  0.3591E+05  0.3584E+05  0.7892E+04  0.7867E+04  0.1145E+04  0.1144E+04  0.8620E+01  0.2585E+02  0.0000E+00  0.2115E-01  0.2252E+01  0.6642E+01  0.1568E+03  0.1383E+03  0.1514E+07  0.1492E+07  0.2390E+05  0.1623E+05  0.0000E+00  0.0000E+00  0.0000E+00  0.0000E+00  0.0000E+00  0.0000E+00  0.0000E+00  0.0000E+00  0.0000E+00  0.0000E+00  0.0000E+00  0.0000E+00  0.0000E+00  0.0000E+00  0.0000E+00  0.0000E+00  0.0000E+00  0.3701E+05  0.7874E+04  0.0000E+00  0.0000E+00
REACH    2        0  1990  0.1473E+01  0.3130E-01  0.3129E-01  0.7301E-05  0.0000E+00  0.1910E+05  0.1910E+05  0.5024E+04  0.1143E+05  0.1143E+05  0.2514E+04  0.2512E+04  0.3133E+03  0.3133E+03  0.0000E+00  0.4959E+01  0.0000E+00  0.0000E+00  0.3090E+00  0.9221E+00  0.4178E+02  0.4000E+02  0.4125E+06  0.4109E+06  0.1133E+05  0.8505E+04  0.0000E+00  0.0000E+00  0.0000E+00  0.0000E+00  0.0000E+00  0.0000E+00  0.0000E+00  0.0000E+00  0.0000E+00  0.0000E+00  0.0000E+00  0.0000E+00  0.0000E+00  0.0000E+00  0.0000E+00  0.0000E+00  0.0000E+00  0.1174E+05  0.2513E+04  0.0000E+00  0.0000E+00
REACH    3        0  1990  0.1377E+01  0.2683E-01  0.2682E-01  0.1112E-04  0.0000E+00  0.2082E+05  0.2082E+05  0.7611E+04  0.5697E+04  0.5692E+04  0.1255E+04  0.1253E+04  0.2451E+03  0.2450E+03  0.0000E+00  0.3661E+01  0.0000E+00  0.0000E+00  0.1566E+00  0.4649E+00  0.2308E+02  0.2165E+02  0.4883E+06  0.4853E+06  0.9413E+04  0.4164E+04  0.0000E+00  0.0000E+00  0.0000E+00  0.0000E+00  0.0000E+00  0.0000E+00  0.0000E+00  0.0000E+00  0.0000E+00  0.0000E+00  0.0000E+00  0.0000E+00  0.0000E+00  0.0000E+00  0.0000E+00  0.0000E+00  0.0000E+00  0.5941E+04  0.1254E+04  0.0000E+00  0.0000E+00
REACH    1        0     1  0.5330E+01  0.2049E+00  0.2048E+00  0.1499E-04  0.0000E+00  0.8604E+04  0.1009E+03  0.1728E+03  0.4915E+04  0.4904E+04  0.1079E+04  0.1075E+04  0.1736E+03  0.1736E+03  0.1887E+01  0.5661E+01  0.0000E+00  0.4948E-02  0.3858E+00  0.1148E+01  0.8753E+01  0.7302E+01  0.1340E+06  0.1318E+06  0.4090E+04  0.2494E+04  0.0000E+00  0.0000E+00  0.0000E+00  0.0000E+00  0.0000E+00  0.0000E+00  0.0000E+00  0.0000E+00  0.0000E+00  0.0000E+00  0.0000E+00  0.0000E+00  0.0000E+00  0.0000E+00  0.0000E+00  0.0000E+00  0.0000E+00  0.5083E+04  0.1076E+04  0.0000E+00  0.0000E+00
REACH    2        0     1  0.1473E+01  0.6291E-01  0.6291E-01  0.1102E-05  0.0000E+00  0.3305E+04  0.3305E+04  0.1150E+05  0.1959E+04  0.1958E+04  0.4303E+03  0.4300E+03  0.4117E+02  0.4117E+02  0.0000E+00  0.9151E+00  0.0000E+00  0.0000E+00  0.5850E-01  0.1751E+00  0.4294E+01  0.4046E+01  0.5317E+05  0.5292E+05  0.1900E+04  0.1168E+04  0.0000E+00  0.0000E+00  0.0000E+00  0.0000E+00  0.0000E+00  0.0000E+00  0.0000E+00  0.0000E+00  0.0000E+00  0.0000E+00  0.0000E+00  0.0000E+00  0.0000E+00  0.0000E+00  0.0000E+00  0.0000E+00  0.0000E+00  0.2000E+04  0.4301E+03  0.0000E+00  0.0000E+00
REACH    3        0     1  0.1377E+01  0.6726E-01  0.6726E-01  0.1661E-05  0.0000E+00  0.3555E+04  0.3555E+04  0.1282E+05  0.1483E+04  0.1482E+04  0.3253E+03  0.3249E+03  0.4207E+02  0.4207E+02  0.0000E+00  0.9721E+00  0.0000E+00  0.0000E+00  0.4224E-01  0.1258E+00  0.2990E+01  0.2749E+01  0.5574E+05  0.5537E+05  0.2011E+04  0.7425E+03  0.0000E+00  0.0000E+00  0.0000E+00  0.0000E+00  0.0000E+00  0.0000E+00  0.0000E+00  0.0000E+00  0.0000E+00  0.0000E+00  0.0000E+00  0.0000E+00  0.0000E+00  0.0000E+00  0.0000E+00  0.0000E+00  0.0000E+00  0.1525E+04  0.3250E+03  0.0000E+00  0.0000E+00
REACH    1        0     2  0.5330E+01  0.2705E+00  0.2704E+00  0.6367E-04  0.0000E+00  0.3234E+05  0.1347E+03  0.2032E+03  0.1123E+05  0.1121E+05  0.2472E+04  0.2466E+04  0.1328E+03  0.1327E+03  0.2168E+01  0.6503E+01  0.0000E+00  0.4371E-02  0.6636E+00  0.1962E+01  0.8168E+02  0.7336E+02  0.7973E+06  0.7871E+06  0.4195E+04  0.2897E+04  0.0000E+00  0.0000E+00  0.0000E+00  0.0000E+00  0.0000E+00  0.0000E+00  0.0000E+00  0.0000E+00  0.0000E+00  0.0000E+00  0.0000E+00  0.0000E+00  0.0000E+00  0.0000E+00  0.0000E+00  0.0000E+00  0.0000E+00  0.1135E+05  0.2468E+04  0.0000E+00  0.0000E+00
REACH    2        0     2  0.1473E+01  0.8869E-01  0.8868E-01  0.2461E-05  0.0000E+00  0.9664E+04  0.9664E+04  0.2968E+05  0.2929E+04  0.2928E+04  0.6456E+03  0.6451E+03  0.3700E+02  0.3700E+02  0.0000E+00  0.1123E+01  0.0000E+00  0.0000E+00  0.8009E-01  0.2392E+00  0.8996E+01  0.8584E+01  0.1726E+06  0.1720E+06  0.2251E+04  0.1244E+04  0.0000E+00  0.0000E+00  0.0000E+00  0.0000E+00  0.0000E+00  0.0000E+00  0.0000E+00  0.0000E+00  0.0000E+00  0.0000E+00  0.0000E+00  0.0000E+00  0.0000E+00  0.0000E+00  0.0000E+00  0.0000E+00  0.0000E+00  0.2966E+04  0.6453E+03  0.0000E+00  0.0000E+00
REACH    3        0     2  0.1377E+01  0.8426E-01  0.8426E-01  0.4087E-05  0.0000E+00  0.8380E+04  0.8380E+04  0.2808E+05  0.1831E+04  0.1830E+04  0.4032E+03  0.4028E+03  0.3436E+02  0.3436E+02  0.0000E+00  0.1045E+01  0.0000E+00  0.0000E+00  0.5407E-01  0.1611E+00  0.6395E+01  0.6016E+01  0.1585E+06  0.1576E+06  0.2074E+04  0.7906E+03  0.0000E+00  0.0000E+00  0.0000E+00  0.0000E+00  0.0000E+00  0.0000E+00  0.0000E+00  0.0000E+00  0.0000E+00  0.0000E+00  0.0000E+00  0.0000E+00  0.0000E+00  0.0000E+00  0.0000E+00  0.0000E+00  0.0000E+00  0.1865E+04  0.4029E+03  0.0000E+00  0.0000E+00
REACH    1        0     3  0.5330E+01  0.2638E+00  0.2637E+00  0.7749E-04  0.0000E+00  0.1816E+05  0.1495E+03  0.1925E+03  0.3893E+04  0.3885E+04  0.8606E+03  0.8582E+03  0.1231E+03  0.1231E+03  0.8311E+00  0.2493E+01  0.0000E+00  0.1773E-02  0.3136E+00  0.9232E+00  0.7816E+01  0.6789E+01  0.2735E+06  0.2696E+06  0.5285E+04  0.3810E+04  0.0000E+00  0.0000E+00  0.0000E+00  0.0000E+00  0.0000E+00  0.0000E+00  0.0000E+00  0.0000E+00  0.0000E+00  0.0000E+00  0.0000E+00  0.0000E+00  0.0000E+00  0.0000E+00  0.0000E+00  0.0000E+00  0.0000E+00  0.4011E+04  0.8591E+03  0.0000E+00  0.0000E+00
REACH    2        0     3  0.1473E+01  0.8187E-01  0.8187E-01  0.1852E-05  0.0000E+00  0.5211E+04  0.5211E+04  0.1548E+05  0.9840E+03  0.9835E+03  0.2178E+03  0.2176E+03  0.2959E+02  0.2959E+02  0.0000E+00  0.3880E+00  0.0000E+00  0.0000E+00  0.3555E-01  0.1057E+00  0.1762E+01  0.1678E+01  0.7527E+05  0.7498E+05  0.2476E+04  0.1224E+04  0.0000E+00  0.0000E+00  0.0000E+00  0.0000E+00  0.0000E+00  0.0000E+00  0.0000E+00  0.0000E+00  0.0000E+00  0.0000E+00  0.0000E+00  0.0000E+00  0.0000E+00  0.0000E+00  0.0000E+00  0.0000E+00  0.0000E+00  0.1013E+04  0.2177E+03  0.0000E+00  0.0000E+00
REACH    3        0     3  0.1377E+01  0.8044E-01  0.8043E-01  0.6665E-05  0.0000E+00  0.5636E+04  0.5636E+04  0.1658E+05  0.7438E+03  0.7432E+03  0.1645E+03  0.1643E+03  0.2988E+02  0.2988E+02  0.0000E+00  0.4431E+00  0.0000E+00  0.0000E+00  0.2739E-01  0.8128E-01  0.1351E+01  0.1262E+01  0.8069E+05  0.8020E+05  0.2396E+04  0.1159E+04  0.0000E+00  0.0000E+00  0.0000E+00  0.0000E+00  0.0000E+00  0.0000E+00  0.0000E+00  0.0000E+00  0.0000E+00  0.0000E+00  0.0000E+00  0.0000E+00  0.0000E+00  0.0000E+00  0.0000E+00  0.0000E+00  0.0000E+00  0.7736E+03  0.1644E+03  0.0000E+00  0.0000E+00
REACH    1        0     4  0.5330E+01  0.1425E+00  0.1424E+00  0.8310E-04  0.0000E+00  0.5427E+04  0.5844E+02  0.1444E+03  0.6482E+03  0.6465E+03  0.1439E+03  0.1434E+03  0.3983E+02  0.3981E+02  0.2461E+00  0.7382E+00  0.0000E+00  0.6317E-03  0.4981E-01  0.1441E+00  0.4728E+00  0.3784E+00  0.4846E+05  0.4758E+05  0.3313E+04  0.2912E+04  0.0000E+00  0.0000E+00  0.0000E+00  0.0000E+00  0.0000E+00  0.0000E+00  0.0000E+00  0.0000E+00  0.0000E+00  0.0000E+00  0.0000E+00  0.0000E+00  0.0000E+00  0.0000E+00  0.0000E+00  0.0000E+00  0.0000E+00  0.6871E+03  0.1435E+03  0.0000E+00  0.0000E+00
REACH    2        0     4  0.1473E+01  0.5262E-01  0.5262E-01  0.3353E-05  0.0000E+00  0.2662E+04  0.2662E+04  0.1121E+05  0.2775E+03  0.2773E+03  0.6172E+02  0.6166E+02  0.1502E+02  0.1502E+02  0.0000E+00  0.1341E+00  0.0000E+00  0.0000E+00  0.6784E-02  0.1997E-01  0.2184E+00  0.2038E+00  0.2350E+05  0.2338E+05  0.1576E+04  0.1134E+04  0.0000E+00  0.0000E+00  0.0000E+00  0.0000E+00  0.0000E+00  0.0000E+00  0.0000E+00  0.0000E+00  0.0000E+00  0.0000E+00  0.0000E+00  0.0000E+00  0.0000E+00  0.0000E+00  0.0000E+00  0.0000E+00  0.0000E+00  0.2924E+03  0.6168E+02  0.0000E+00  0.0000E+00
REACH    3        0     4  0.1377E+01  0.3960E-01  0.3959E-01  0.1146E-04  0.0000E+00  0.1827E+04  0.1827E+04  0.9146E+04  0.1434E+03  0.1433E+03  0.3184E+02  0.3179E+02  0.1058E+02  0.1058E+02  0.0000E+00  0.1120E+00  0.0000E+00  0.0000E+00  0.3996E-02  0.1180E-01  0.1041E+00  0.9301E-01  0.1606E+05  0.1593E+05  0.1168E+04  0.7357E+03  0.0000E+00  0.0000E+00  0.0000E+00  0.0000E+00  0.0000E+00  0.0000E+00  0.0000E+00  0.0000E+00  0.0000E+00  0.0000E+00  0.0000E+00  0.0000E+00  0.0000E+00  0.0000E+00  0.0000E+00  0.0000E+00  0.0000E+00  0.1540E+03  0.3180E+02  0.0000E+00  0.0000E+00
REACH    1        0     5  0.5330E+01  0.7018E-01  0.7007E-01  0.1161E-03  0.0000E+00  0.1316E+03  0.2122E+02  0.1096E+03  0.1144E+02  0.1139E+02  0.2541E+01  0.2526E+01  0.4880E+01  0.4874E+01  0.1749E-01  0.5238E-01  0.0000E+00  0.2662E-04  0.1039E-02  0.3044E-02  0.3212E-03  0.1938E-03  0.3037E+03  0.2956E+03  0.2052E+04  0.2020E+04  0.0000E+00  0.0000E+00  0.0000E+00  0.0000E+00  0.0000E+00  0.0000E+00  0.0000E+00  0.0000E+00  0.0000E+00  0.0000E+00  0.0000E+00  0.0000E+00  0.0000E+00  0.0000E+00  0.0000E+00  0.0000E+00  0.0000E+00  0.1631E+02  0.2529E+01  0.0000E+00  0.0000E+00
REACH    2        0     5  0.1473E+01  0.2524E-01  0.2523E-01  0.1165E-04  0.0000E+00  0.6378E+02  0.6378E+02  0.3985E+03  0.5661E+01  0.5655E+01  0.1260E+01  0.1258E+01  0.3946E+01  0.3945E+01  0.0000E+00  0.7598E-02  0.0000E+00  0.0000E+00  0.1833E-03  0.5089E-03  0.2026E-03  0.1811E-03  0.1344E+03  0.1336E+03  0.8058E+03  0.7286E+03  0.0000E+00  0.0000E+00  0.0000E+00  0.0000E+00  0.0000E+00  0.0000E+00  0.0000E+00  0.0000E+00  0.0000E+00  0.0000E+00  0.0000E+00  0.0000E+00  0.0000E+00  0.0000E+00  0.0000E+00  0.0000E+00  0.0000E+00  0.9608E+01  0.1259E+01  0.0000E+00  0.0000E+00
REACH    3        0     5  0.1377E+01  0.1619E-01  0.1617E-01  0.1687E-04  0.0000E+00  0.5281E+02  0.5281E+02  0.5922E+03  0.3218E+01  0.3211E+01  0.7148E+00  0.7128E+00  0.8383E+00  0.8376E+00  0.0000E+00  0.9889E-02  0.0000E+00  0.0000E+00  0.1188E-03  0.3233E-03  0.1605E-03  0.1227E-03  0.1569E+03  0.1549E+03  0.5085E+03  0.4407E+03  0.0000E+00  0.0000E+00  0.0000E+00  0.0000E+00  0.0000E+00  0.0000E+00  0.0000E+00  0.0000E+00  0.0000E+00  0.0000E+00  0.0000E+00  0.0000E+00  0.0000E+00  0.0000E+00  0.0000E+00  0.0000E+00  0.0000E+00  0.4059E+01  0.7131E+00  0.0000E+00  0.0000E+00
REACH    1        0     6  0.5330E+01  0.4369E-01  0.4355E-01  0.1387E-03  0.0000E+00  0.2537E-02  0.9852E+01  0.8584E+02  0.7101E-05  0.0000E+00  0.2260E-04  0.0000E+00  0.3427E+00  0.3417E+00  0.1016E-01  0.3039E-01  0.0000E+00  0.3132E-05  0.7011E-05  0.0000E+00  0.1436E-17  0.0000E+00  0.1171E-03  0.1125E-03  0.1325E+04  0.1329E+04  0.0000E+00  0.0000E+00  0.0000E+00  0.0000E+00  0.0000E+00  0.0000E+00  0.0000E+00  0.0000E+00  0.0000E+00  0.0000E+00  0.0000E+00  0.0000E+00  0.0000E+00  0.0000E+00  0.0000E+00  0.0000E+00  0.0000E+00  0.3721E+00  0.0000E+00  0.0000E+00  0.0000E+00
REACH    2        0     6  0.1473E+01  0.1579E-01  0.1577E-01  0.1489E-04  0.0000E+00  0.3805E-06  0.3805E-06  0.9416E-05  0.4388E-05  0.0000E+00  0.1298E-04  0.0000E+00  0.1059E+00  0.1058E+00  0.0000E+00  0.4408E-02  0.0000E+00  0.0000E+00  0.4327E-05  0.0000E+00  0.4448E-18  0.0000E+00  0.0000E+00  0.0000E+00  0.4961E+03  0.4814E+03  0.0000E+00  0.0000E+00  0.0000E+00  0.0000E+00  0.0000E+00  0.0000E+00  0.0000E+00  0.0000E+00  0.0000E+00  0.0000E+00  0.0000E+00  0.0000E+00  0.0000E+00  0.0000E+00  0.0000E+00  0.0000E+00  0.0000E+00  0.1102E+00  0.0000E+00  0.0000E+00  0.0000E+00
REACH    3        0     6  0.1377E+01  0.6654E-02  0.6635E-02  0.1957E-04  0.0000E+00  0.2537E-02  0.2537E-02  0.1145E+00  0.4040E-05  0.0000E+00  0.1205E-04  0.1575E-05  0.1860E+00  0.1855E+00  0.0000E+00  0.5755E-02  0.0000E+00  0.0000E+00  0.4010E-05  0.0000E+00  0.5719E-15  0.0000E+00  0.1193E-03  0.1171E-03  0.2058E+03  0.2024E+03  0.0000E+00  0.0000E+00  0.0000E+00  0.0000E+00  0.0000E+00  0.0000E+00  0.0000E+00  0.0000E+00  0.0000E+00  0.0000E+00  0.0000E+00  0.0000E+00  0.0000E+00  0.0000E+00  0.0000E+00  0.0000E+00  0.0000E+00  0.1912E+00  0.1575E-05  0.0000E+00  0.0000E+00
REACH    1        0     7  0.5330E+01  0.3077E-01  0.3062E-01  0.1524E-03  0.0000E+00  0.4224E+00  0.5009E+01  0.6046E+02  0.8911E-05  0.0000E+00  0.4022E-04  0.9030E-05  0.5623E+00  0.5603E+00  0.9994E-02  0.2983E-01  0.0000E+00  0.7206E-04  0.1234E-04  0.0000E+00  0.2448E-17  0.0000E+00  0.9420E+00  0.8869E+00  0.9766E+03  0.9789E+03  0.0000E+00  0.0000E+00  0.0000E+00  0.0000E+00  0.0000E+00  0.0000E+00  0.0000E+00  0.0000E+00  0.0000E+00  0.0000E+00  0.0000E+00  0.0000E+00  0.0000E+00  0.0000E+00  0.0000E+00  0.0000E+00  0.0000E+00  0.5902E+00  0.9030E-05  0.0000E+00  0.0000E+00
REACH    2        0     7  0.1473E+01  0.1234E-01  0.1233E-01  0.1624E-04  0.0000E+00  0.3932E-06  0.3932E-06  0.1201E-04  0.4466E-05  0.0000E+00  0.1340E-04  0.0000E+00  0.1747E+00  0.1745E+00  0.0000E+00  0.4360E-02  0.0000E+00  0.0000E+00  0.4471E-05  0.0000E+00  0.7489E-18  0.0000E+00  0.0000E+00  0.0000E+00  0.4066E+03  0.3944E+03  0.0000E+00  0.0000E+00  0.0000E+00  0.0000E+00  0.0000E+00  0.0000E+00  0.0000E+00  0.0000E+00  0.0000E+00  0.0000E+00  0.0000E+00  0.0000E+00  0.0000E+00  0.0000E+00  0.0000E+00  0.0000E+00  0.0000E+00  0.1789E+00  0.0000E+00  0.0000E+00  0.0000E+00
REACH    3        0     7  0.1377E+01  0.1951E-02  0.1930E-02  0.2140E-04  0.0000E+00  0.4224E+00  0.4224E+00  0.9746E+02  0.4634E-05  0.1673E-05  0.1914E-04  0.1851E-04  0.2289E+00  0.2269E+00  0.0000E+00  0.5634E-02  0.0000E+00  0.0000E+00  0.4143E-05  0.5097E-05  0.5886E-09  0.0000E+00  0.1035E+01  0.9420E+00  0.6323E+02  0.6071E+02  0.0000E+00  0.0000E+00  0.0000E+00  0.0000E+00  0.0000E+00  0.0000E+00  0.0000E+00  0.0000E+00  0.0000E+00  0.0000E+00  0.0000E+00  0.0000E+00  0.0000E+00  0.0000E+00  0.0000E+00  0.0000E+00  0.0000E+00  0.2325E+00  0.2361E-04  0.0000E+00  0.0000E+00
REACH    1        0     8  0.5330E+01  0.2662E-01  0.2650E-01  0.1138E-03  0.0000E+00  0.5807E+02  0.4044E+01  0.5361E+02  0.8427E-02  0.8323E-02  0.2880E-02  0.2832E-02  0.1116E+01  0.1113E+01  0.1071E-01  0.3200E-01  0.0000E+00  0.1157E-03  0.1041E-04  0.0000E+00  0.2770E-06  0.0000E+00  0.7861E+03  0.7278E+03  0.7683E+03  0.5119E+03  0.0000E+00  0.0000E+00  0.0000E+00  0.0000E+00  0.0000E+00  0.0000E+00  0.0000E+00  0.0000E+00  0.0000E+00  0.0000E+00  0.0000E+00  0.0000E+00  0.0000E+00  0.0000E+00  0.0000E+00  0.0000E+00  0.0000E+00  0.1153E+01  0.2832E-02  0.0000E+00  0.0000E+00
REACH    2        0     8  0.1473E+01  0.1082E-01  0.1081E-01  0.1190E-04  0.0000E+00  0.4561E-01  0.4561E-01  0.1282E+01  0.8389E-02  0.8368E-02  0.1861E-02  0.1847E-02  0.2614E+00  0.2612E+00  0.0000E+00  0.4632E-02  0.0000E+00  0.0000E+00  0.5118E-05  0.0000E+00  0.5214E-06  0.2770E-06  0.1929E+00  0.1906E+00  0.3475E+03  0.3369E+03  0.0000E+00  0.0000E+00  0.0000E+00  0.0000E+00  0.0000E+00  0.0000E+00  0.0000E+00  0.0000E+00  0.0000E+00  0.0000E+00  0.0000E+00  0.0000E+00  0.0000E+00  0.0000E+00  0.0000E+00  0.0000E+00  0.0000E+00  0.2742E+00  0.1847E-02  0.0000E+00  0.0000E+00
REACH    3        0     8  0.1377E+01  0.2657E-02  0.2641E-02  0.1603E-04  0.0000E+00  0.5802E+02  0.5802E+02  0.1082E+05  0.5281E-04  0.5183E-04  0.1032E-02  0.1011E-02  0.4294E+00  0.4270E+00  0.0000E+00  0.6080E-02  0.0000E+00  0.0000E+00  0.4179E-05  0.3164E-05  0.5431E-06  0.0000E+00  0.8468E+03  0.7859E+03  0.8098E+02  0.2563E+02  0.0000E+00  0.0000E+00  0.0000E+00  0.0000E+00  0.0000E+00  0.0000E+00  0.0000E+00  0.0000E+00  0.0000E+00  0.0000E+00  0.0000E+00  0.0000E+00  0.0000E+00  0.0000E+00  0.0000E+00  0.0000E+00  0.0000E+00  0.4331E+00  0.1015E-02  0.0000E+00  0.0000E+00
REACH    1        0     9  0.5330E+01  0.2352E-01  0.2342E-01  0.9325E-04  0.0000E+00  0.1651E+03  0.3990E+01  0.6540E+02  0.9544E-01  0.9424E-01  0.2151E-01  0.2115E-01  0.1087E+01  0.1084E+01  0.1050E-01  0.3137E-01  0.0000E+00  0.9907E-04  0.2386E-04  0.5017E-04  0.1886E-04  0.0000E+00  0.4181E+04  0.3906E+04  0.6524E+03  0.3713E+03  0.0000E+00  0.0000E+00  0.0000E+00  0.0000E+00  0.0000E+00  0.0000E+00  0.0000E+00  0.0000E+00  0.0000E+00  0.0000E+00  0.0000E+00  0.0000E+00  0.0000E+00  0.0000E+00  0.0000E+00  0.0000E+00  0.0000E+00  0.1209E+01  0.2121E-01  0.0000E+00  0.0000E+00
REACH    2        0     9  0.1473E+01  0.9413E-02  0.9403E-02  0.9817E-05  0.0000E+00  0.4673E+00  0.4673E+00  0.2134E+02  0.9571E-01  0.9540E-01  0.2109E-01  0.2100E-01  0.2393E+00  0.2390E+00  0.0000E+00  0.4602E-02  0.0000E+00  0.0000E+00  0.1200E-04  0.1564E-04  0.6841E-04  0.1886E-04  0.6235E+01  0.6131E+01  0.2939E+03  0.2786E+03  0.0000E+00  0.0000E+00  0.0000E+00  0.0000E+00  0.0000E+00  0.0000E+00  0.0000E+00  0.0000E+00  0.0000E+00  0.0000E+00  0.0000E+00  0.0000E+00  0.0000E+00  0.0000E+00  0.0000E+00  0.0000E+00  0.0000E+00  0.3391E+00  0.2102E-01  0.0000E+00  0.0000E+00
REACH    3        0     9  0.1377E+01  0.3744E-02  0.3731E-02  0.1323E-04  0.0000E+00  0.1646E+03  0.1646E+03  0.2375E+05  0.2942E-04  0.2805E-04  0.5009E-03  0.4890E-03  0.3838E+00  0.3825E+00  0.0000E+00  0.5901E-02  0.0000E+00  0.0000E+00  0.4116E-05  0.1208E-05  0.2010E-05  0.0000E+00  0.4416E+04  0.4175E+04  0.1087E+03  0.6276E+02  0.0000E+00  0.0000E+00  0.0000E+00  0.0000E+00  0.0000E+00  0.0000E+00  0.0000E+00  0.0000E+00  0.0000E+00  0.0000E+00  0.0000E+00  0.0000E+00  0.0000E+00  0.0000E+00  0.0000E+00  0.0000E+00  0.0000E+00  0.3884E+00  0.4902E-03  0.0000E+00  0.0000E+00
REACH    1        0    10  0.5330E+01  0.4332E-01  0.4325E-01  0.6948E-04  0.0000E+00  0.1105E+04  0.1167E+02  0.8463E+02  0.9672E+02  0.9634E+02  0.2150E+02  0.2138E+02  0.1194E+02  0.1193E+02  0.7348E-01  0.2202E+00  0.0000E+00  0.2958E-03  0.9796E-02  0.2902E-01  0.8469E-01  0.4062E-01  0.1483E+05  0.1438E+05  0.1055E+04  0.7202E+03  0.0000E+00  0.0000E+00  0.0000E+00  0.0000E+00  0.0000E+00  0.0000E+00  0.0000E+00  0.0000E+00  0.0000E+00  0.0000E+00  0.0000E+00  0.0000E+00  0.0000E+00  0.0000E+00  0.0000E+00  0.0000E+00  0.0000E+00  0.1085E+03  0.2141E+02  0.0000E+00  0.0000E+00
REACH    2        0    10  0.1473E+01  0.1589E-01  0.1589E-01  0.4917E-05  0.0000E+00  0.5748E+03  0.5748E+03  0.5798E+04  0.5172E+02  0.5167E+02  0.1151E+02  0.1150E+02  0.8315E+01  0.8314E+01  0.0000E+00  0.3999E-01  0.0000E+00  0.0000E+00  0.1602E-02  0.4756E-02  0.7274E-01  0.6059E-01  0.7873E+04  0.7817E+04  0.5021E+03  0.4077E+03  0.0000E+00  0.0000E+00  0.0000E+00  0.0000E+00  0.0000E+00  0.0000E+00  0.0000E+00  0.0000E+00  0.0000E+00  0.0000E+00  0.0000E+00  0.0000E+00  0.0000E+00  0.0000E+00  0.0000E+00  0.0000E+00  0.0000E+00  0.6003E+02  0.1150E+02  0.0000E+00  0.0000E+00
REACH    3        0    10  0.1377E+01  0.1151E-01  0.1150E-01  0.9556E-05  0.0000E+00  0.4004E+03  0.4004E+03  0.8792E+04  0.2259E+02  0.2255E+02  0.5019E+01  0.5005E+01  0.3043E+01  0.3041E+01  0.0000E+00  0.3349E-01  0.0000E+00  0.0000E+00  0.9409E-03  0.2801E-02  0.2284E-01  0.1697E-01  0.6321E+04  0.6202E+04  0.3522E+03  0.1566E+03  0.0000E+00  0.0000E+00  0.0000E+00  0.0000E+00  0.0000E+00  0.0000E+00  0.0000E+00  0.0000E+00  0.0000E+00  0.0000E+00  0.0000E+00  0.0000E+00  0.0000E+00  0.0000E+00  0.0000E+00  0.0000E+00  0.0000E+00  0.2562E+02  0.5008E+01  0.0000E+00  0.0000E+00
REACH    1        0    11  0.5330E+01  0.6552E-01  0.6546E-01  0.5952E-04  0.0000E+00  0.2562E+04  0.1974E+02  0.9520E+02  0.3181E+03  0.3172E+03  0.7060E+02  0.7030E+02  0.7454E+02  0.7448E+02  0.6918E-01  0.2075E+00  0.0000E+00  0.2223E-03  0.2692E-01  0.7263E-01  0.1721E+01  0.1264E+01  0.6055E+05  0.5917E+05  0.1454E+04  0.8481E+03  0.0000E+00  0.0000E+00  0.0000E+00  0.0000E+00  0.0000E+00  0.0000E+00  0.0000E+00  0.0000E+00  0.0000E+00  0.0000E+00  0.0000E+00  0.0000E+00  0.0000E+00  0.0000E+00  0.0000E+00  0.0000E+00  0.0000E+00  0.3919E+03  0.7038E+02  0.0000E+00  0.0000E+00
REACH    2        0    11  0.1473E+01  0.2434E-01  0.2434E-01  0.2466E-05  0.0000E+00  0.3400E+03  0.3400E+03  0.2738E+04  0.3217E+02  0.3215E+02  0.7156E+01  0.7148E+01  0.3546E+02  0.3546E+02  0.0000E+00  0.2402E-01  0.0000E+00  0.0000E+00  0.1249E-02  0.3654E-02  0.2299E-01  0.2022E-01  0.3149E+04  0.3130E+04  0.7580E+03  0.6190E+03  0.0000E+00  0.0000E+00  0.0000E+00  0.0000E+00  0.0000E+00  0.0000E+00  0.0000E+00  0.0000E+00  0.0000E+00  0.0000E+00  0.0000E+00  0.0000E+00  0.0000E+00  0.0000E+00  0.0000E+00  0.0000E+00  0.0000E+00  0.6763E+02  0.7151E+01  0.0000E+00  0.0000E+00
REACH    3        0    11  0.1377E+01  0.1773E-01  0.1772E-01  0.4929E-05  0.0000E+00  0.8217E+03  0.8217E+03  0.1836E+05  0.5061E+02  0.5056E+02  0.1123E+02  0.1121E+02  0.2806E+02  0.2805E+02  0.0000E+00  0.4517E-01  0.0000E+00  0.0000E+00  0.1736E-02  0.5101E-02  0.1477E+00  0.1251E+00  0.1665E+05  0.1641E+05  0.5216E+03  0.1742E+03  0.0000E+00  0.0000E+00  0.0000E+00  0.0000E+00  0.0000E+00  0.0000E+00  0.0000E+00  0.0000E+00  0.0000E+00  0.0000E+00  0.0000E+00  0.0000E+00  0.0000E+00  0.0000E+00  0.0000E+00  0.0000E+00  0.0000E+00  0.7866E+02  0.1122E+02  0.0000E+00  0.0000E+00
REACH    1        0    12  0.5330E+01  0.1052E+00  0.1052E+00  0.3985E-04  0.0000E+00  0.5064E+04  0.4413E+02  0.1221E+03  0.5212E+03  0.5200E+03  0.1158E+03  0.1154E+03  0.1126E+03  0.1125E+03  0.1194E+00  0.3583E+00  0.0000E+00  0.2994E-03  0.3851E-01  0.1099E+00  0.7234E+00  0.5516E+00  0.6279E+05  0.6162E+05  0.2186E+04  0.1220E+04  0.0000E+00  0.0000E+00  0.0000E+00  0.0000E+00  0.0000E+00  0.0000E+00  0.0000E+00  0.0000E+00  0.0000E+00  0.0000E+00  0.0000E+00  0.0000E+00  0.0000E+00  0.0000E+00  0.0000E+00  0.0000E+00  0.0000E+00  0.6329E+03  0.1155E+03  0.0000E+00  0.0000E+00
REACH    2        0    12  0.1473E+01  0.3340E-01  0.3340E-01  0.1190E-05  0.0000E+00  0.1329E+04  0.1329E+04  0.6125E+04  0.1007E+03  0.1006E+03  0.2240E+02  0.2238E+02  0.2758E+02  0.2758E+02  0.0000E+00  0.5509E-01  0.0000E+00  0.0000E+00  0.2869E-02  0.8420E-02  0.7847E-01  0.7241E-01  0.1171E+05  0.1166E+05  0.1042E+04  0.6876E+03  0.0000E+00  0.0000E+00  0.0000E+00  0.0000E+00  0.0000E+00  0.0000E+00  0.0000E+00  0.0000E+00  0.0000E+00  0.0000E+00  0.0000E+00  0.0000E+00  0.0000E+00  0.0000E+00  0.0000E+00  0.0000E+00  0.0000E+00  0.1282E+03  0.2239E+02  0.0000E+00  0.0000E+00
REACH    3        0    12  0.1377E+01  0.3358E-01  0.3358E-01  0.1730E-05  0.0000E+00  0.1648E+04  0.1648E+04  0.1062E+05  0.8868E+02  0.8860E+02  0.1971E+02  0.1969E+02  0.3690E+02  0.3690E+02  0.0000E+00  0.6436E-01  0.0000E+00  0.0000E+00  0.3090E-02  0.9068E-02  0.6607E-01  0.5936E-01  0.2025E+05  0.2007E+05  0.1013E+04  0.3937E+03  0.0000E+00  0.0000E+00  0.0000E+00  0.0000E+00  0.0000E+00  0.0000E+00  0.0000E+00  0.0000E+00  0.0000E+00  0.0000E+00  0.0000E+00  0.0000E+00  0.0000E+00  0.0000E+00  0.0000E+00  0.0000E+00  0.0000E+00  0.1256E+03  0.1970E+02  0.0000E+00  0.0000E+00
REACH    1        0  1991  0.5330E+01  0.1059E+00  0.1058E+00  0.8510E-04  0.0000E+00  0.7361E+05  0.5633E+03  0.1147E+03  0.2164E+05  0.2159E+05  0.4766E+04  0.4753E+04  0.6764E+03  0.6761E+03  0.5453E+01  0.1636E+02  0.0000E+00  0.1286E-01  0.1489E+01  0.4392E+01  0.1012E+03  0.8969E+02  0.1397E+07  0.1376E+07  0.2735E+05  0.2011E+05  0.0000E+00  0.0000E+00  0.0000E+00  0.0000E+00  0.0000E+00  0.0000E+00  0.0000E+00  0.0000E+00  0.0000E+00  0.0000E+00  0.0000E+00  0.0000E+00  0.0000E+00  0.0000E+00  0.0000E+00  0.0000E+00  0.0000E+00  0.2229E+05  0.4757E+04  0.0000E+00  0.0000E+00
REACH    2        0  1991  0.1473E+01  0.3555E-01  0.3554E-01  0.6840E-05  0.0000E+00  0.2315E+05  0.2315E+05  0.6682E+04  0.6340E+04  0.6336E+04  0.1398E+04  0.1397E+04  0.1989E+03  0.1989E+03  0.0000E+00  0.2705E+01  0.0000E+00  0.0000E+00  0.1869E+00  0.5573E+00  0.1544E+02  0.1467E+02  0.3474E+06  0.3460E+06  0.1285E+05  0.8704E+04  0.0000E+00  0.0000E+00  0.0000E+00  0.0000E+00  0.0000E+00  0.0000E+00  0.0000E+00  0.0000E+00  0.0000E+00  0.0000E+00  0.0000E+00  0.0000E+00  0.0000E+00  0.0000E+00  0.0000E+00  0.0000E+00  0.0000E+00  0.6538E+04  0.1397E+04  0.0000E+00  0.0000E+00
REACH    3        0  1991  0.1377E+01  0.2994E-01  0.2993E-01  0.1062E-04  0.0000E+00  0.2254E+05  0.2254E+05  0.1141E+05  0.4366E+04  0.4363E+04  0.9616E+03  0.9604E+03  0.1870E+03  0.1869E+03  0.0000E+00  0.2748E+01  0.0000E+00  0.0000E+00  0.1336E+00  0.3972E+00  0.1108E+02  0.1032E+02  0.3597E+06  0.3569E+06  0.1050E+05  0.4945E+04  0.0000E+00  0.0000E+00  0.0000E+00  0.0000E+00  0.0000E+00  0.0000E+00  0.0000E+00  0.0000E+00  0.0000E+00  0.0000E+00  0.0000E+00  0.0000E+00  0.0000E+00  0.0000E+00  0.0000E+00  0.0000E+00  0.0000E+00  0.4552E+04  0.9608E+03  0.0000E+00  0.0000E+00
REACH    1        0     1  0.5330E+01  0.1822E+00  0.1821E+00  0.5119E-04  0.0000E+00  0.2070E+05  0.8796E+02  0.1520E+03  0.7027E+04  0.7013E+04  0.1542E+04  0.1537E+04  0.1260E+03  0.1259E+03  0.2070E+01  0.6210E+01  0.0000E+00  0.4779E-02  0.5195E+00  0.1533E+01  0.3622E+02  0.3177E+02  0.5043E+06  0.4965E+06  0.3242E+04  0.1849E+04  0.0000E+00  0.0000E+00  0.0000E+00  0.0000E+00  0.0000E+00  0.0000E+00  0.0000E+00  0.0000E+00  0.0000E+00  0.0000E+00  0.0000E+00  0.0000E+00  0.0000E+00  0.0000E+00  0.0000E+00  0.0000E+00  0.0000E+00  0.7145E+04  0.1539E+04  0.0000E+00  0.0000E+00
REACH    2        0     1  0.1473E+01  0.6087E-01  0.6087E-01  0.1575E-05  0.0000E+00  0.6555E+04  0.6555E+04  0.1766E+05  0.2153E+04  0.2152E+04  0.4725E+03  0.4721E+03  0.3223E+02  0.3223E+02  0.0000E+00  0.9132E+00  0.0000E+00  0.0000E+00  0.6326E-01  0.1888E+00  0.1043E+02  0.9999E+01  0.1493E+06  0.1487E+06  0.1754E+04  0.1062E+04  0.0000E+00  0.0000E+00  0.0000E+00  0.0000E+00  0.0000E+00  0.0000E+00  0.0000E+00  0.0000E+00  0.0000E+00  0.0000E+00  0.0000E+00  0.0000E+00  0.0000E+00  0.0000E+00  0.0000E+00  0.0000E+00  0.0000E+00  0.2185E+04  0.4723E+03  0.0000E+00  0.0000E+00
REACH    3        0     1  0.1377E+01  0.5979E-01  0.5978E-01  0.2283E-05  0.0000E+00  0.6551E+04  0.6551E+04  0.2088E+05  0.1878E+04  0.1876E+04  0.4117E+03  0.4112E+03  0.3337E+02  0.3337E+02  0.0000E+00  0.1157E+01  0.0000E+00  0.0000E+00  0.6030E-01  0.1792E+00  0.7296E+01  0.6838E+01  0.1386E+06  0.1378E+06  0.1687E+04  0.5651E+03  0.0000E+00  0.0000E+00  0.0000E+00  0.0000E+00  0.0000E+00  0.0000E+00  0.0000E+00  0.0000E+00  0.0000E+00  0.0000E+00  0.0000E+00  0.0000E+00  0.0000E+00  0.0000E+00  0.0000E+00  0.0000E+00  0.0000E+00  0.1911E+04  0.4114E+03  0.0000E+00  0.0000E+00
REACH    1        0     2  0.5330E+01  0.1806E+00  0.1805E+00  0.5208E-04  0.0000E+00  0.1400E+05  0.8054E+02  0.1597E+03  0.3089E+04  0.3083E+04  0.6807E+03  0.6786E+03  0.1085E+03  0.1085E+03  0.7819E+00  0.2346E+01  0.0000E+00  0.1844E-02  0.2047E+00  0.5982E+00  0.1042E+02  0.9027E+01  0.2641E+06  0.2601E+06  0.3284E+04  0.1992E+04  0.0000E+00  0.0000E+00  0.0000E+00  0.0000E+00  0.0000E+00  0.0000E+00  0.0000E+00  0.0000E+00  0.0000E+00  0.0000E+00  0.0000E+00  0.0000E+00  0.0000E+00  0.0000E+00  0.0000E+00  0.0000E+00  0.0000E+00  0.3194E+04  0.6792E+03  0.0000E+00  0.0000E+00
REACH    2        0     2  0.1473E+01  0.6029E-01  0.6029E-01  0.1111E-05  0.0000E+00  0.3346E+04  0.3346E+04  0.1275E+05  0.7154E+03  0.7150E+03  0.1577E+03  0.1575E+03  0.2822E+02  0.2822E+02  0.0000E+00  0.3048E+00  0.0000E+00  0.0000E+00  0.2072E-01  0.6167E-01  0.1743E+01  0.1647E+01  0.5343E+05  0.5321E+05  0.1719E+04  0.1069E+04  0.0000E+00  0.0000E+00  0.0000E+00  0.0000E+00  0.0000E+00  0.0000E+00  0.0000E+00  0.0000E+00  0.0000E+00  0.0000E+00  0.0000E+00  0.0000E+00  0.0000E+00  0.0000E+00  0.0000E+00  0.0000E+00  0.0000E+00  0.7435E+03  0.1576E+03  0.0000E+00  0.0000E+00
REACH    3        0     2  0.1377E+01  0.5770E-01  0.5770E-01  0.3487E-05  0.0000E+00  0.4549E+04  0.4549E+04  0.1694E+05  0.7783E+03  0.7777E+03  0.1715E+03  0.1712E+03  0.3212E+02  0.3212E+02  0.0000E+00  0.4771E+00  0.0000E+00  0.0000E+00  0.2276E-01  0.6751E-01  0.2027E+01  0.1894E+01  0.7637E+05  0.7591E+05  0.1589E+04  0.5878E+03  0.0000E+00  0.0000E+00  0.0000E+00  0.0000E+00  0.0000E+00  0.0000E+00  0.0000E+00  0.0000E+00  0.0000E+00  0.0000E+00  0.0000E+00  0.0000E+00  0.0000E+00  0.0000E+00  0.0000E+00  0.0000E+00  0.0000E+00  0.8103E+03  0.1713E+03  0.0000E+00  0.0000E+00
REACH    1        0     3  0.5330E+01  0.1400E+00  0.1399E+00  0.1019E-03  0.0000E+00  0.1078E+05  0.6372E+02  0.1440E+03  0.2077E+04  0.2073E+04  0.4585E+03  0.4571E+03  0.5079E+02  0.5076E+02  0.4833E+00  0.1450E+01  0.0000E+00  0.1126E-02  0.1276E+00  0.3808E+00  0.1676E+02  0.1451E+02  0.3025E+06  0.2980E+06  0.2869E+04  0.2066E+04  0.0000E+00  0.0000E+00  0.0000E+00  0.0000E+00  0.0000E+00  0.0000E+00  0.0000E+00  0.0000E+00  0.0000E+00  0.0000E+00  0.0000E+00  0.0000E+00  0.0000E+00  0.0000E+00  0.0000E+00  0.0000E+00  0.0000E+00  0.2125E+04  0.4574E+03  0.0000E+00  0.0000E+00
REACH    2        0     3  0.1473E+01  0.4818E-01  0.4817E-01  0.6569E-05  0.0000E+00  0.2803E+04  0.2803E+04  0.1159E+05  0.5027E+03  0.5024E+03  0.1110E+03  0.1109E+03  0.1568E+02  0.1568E+02  0.0000E+00  0.2300E+00  0.0000E+00  0.0000E+00  0.1267E-01  0.3786E-01  0.1249E+01  0.1156E+01  0.4517E+05  0.4496E+05  0.1472E+04  0.9487E+03  0.0000E+00  0.0000E+00  0.0000E+00  0.0000E+00  0.0000E+00  0.0000E+00  0.0000E+00  0.0000E+00  0.0000E+00  0.0000E+00  0.0000E+00  0.0000E+00  0.0000E+00  0.0000E+00  0.0000E+00  0.0000E+00  0.0000E+00  0.5183E+03  0.1109E+03  0.0000E+00  0.0000E+00
REACH    3        0     3  0.1377E+01  0.4244E-01  0.4243E-01  0.1481E-04  0.0000E+00  0.2647E+04  0.2647E+04  0.1181E+05  0.3678E+03  0.3675E+03  0.8117E+02  0.8105E+02  0.1108E+02  0.1108E+02  0.0000E+00  0.2533E+00  0.0000E+00  0.0000E+00  0.1103E-01  0.3295E-01  0.1140E+01  0.1040E+01  0.4806E+05  0.4772E+05  0.1270E+04  0.5717E+03  0.0000E+00  0.0000E+00  0.0000E+00  0.0000E+00  0.0000E+00  0.0000E+00  0.0000E+00  0.0000E+00  0.0000E+00  0.0000E+00  0.0000E+00  0.0000E+00  0.0000E+00  0.0000E+00  0.0000E+00  0.0000E+00  0.0000E+00  0.3788E+03  0.8109E+02  0.0000E+00  0.0000E+00
REACH    1        0     4  0.5330E+01  0.8317E-01  0.8306E-01  0.1048E-03  0.0000E+00  0.4615E+04  0.3163E+02  0.1113E+03  0.1080E+04  0.1078E+04  0.2386E+03  0.2378E+03  0.1673E+02  0.1672E+02  0.4153E+00  0.1245E+01  0.0000E+00  0.8432E-03  0.1033E+00  0.2933E+00  0.7241E+01  0.5847E+01  0.1673E+06  0.1646E+06  0.1717E+04  0.1395E+04  0.0000E+00  0.0000E+00  0.0000E+00  0.0000E+00  0.0000E+00  0.0000E+00  0.0000E+00  0.0000E+00  0.0000E+00  0.0000E+00  0.0000E+00  0.0000E+00  0.0000E+00  0.0000E+00  0.0000E+00  0.0000E+00  0.0000E+00  0.1096E+04  0.2381E+03  0.0000E+00  0.0000E+00
REACH    2        0     4  0.1473E+01  0.2904E-01  0.2903E-01  0.1067E-04  0.0000E+00  0.1616E+04  0.1616E+04  0.6687E+04  0.4224E+03  0.4221E+03  0.9335E+02  0.9326E+02  0.6133E+01  0.6132E+01  0.0000E+00  0.1908E+00  0.0000E+00  0.0000E+00  0.1212E-01  0.3554E-01  0.2529E+01  0.2360E+01  0.5464E+05  0.5438E+05  0.8175E+03  0.6106E+03  0.0000E+00  0.0000E+00  0.0000E+00  0.0000E+00  0.0000E+00  0.0000E+00  0.0000E+00  0.0000E+00  0.0000E+00  0.0000E+00  0.0000E+00  0.0000E+00  0.0000E+00  0.0000E+00  0.0000E+00  0.0000E+00  0.0000E+00  0.4285E+03  0.9330E+02  0.0000E+00  0.0000E+00
REACH    3        0     4  0.1377E+01  0.2554E-01  0.2552E-01  0.1486E-04  0.0000E+00  0.1794E+04  0.1794E+04  0.7535E+04  0.3620E+03  0.3616E+03  0.7992E+02  0.7981E+02  0.4280E+01  0.4278E+01  0.0000E+00  0.2244E+00  0.0000E+00  0.0000E+00  0.1137E-01  0.3309E-01  0.2482E+01  0.2234E+01  0.6103E+05  0.6059E+05  0.7166E+03  0.3211E+03  0.0000E+00  0.0000E+00  0.0000E+00  0.0000E+00  0.0000E+00  0.0000E+00  0.0000E+00  0.0000E+00  0.0000E+00  0.0000E+00  0.0000E+00  0.0000E+00  0.0000E+00  0.0000E+00  0.0000E+00  0.0000E+00  0.0000E+00  0.3661E+03  0.7985E+02  0.0000E+00  0.0000E+00
REACH    1        0     5  0.5330E+01  0.3480E-01  0.3461E-01  0.1880E-03  0.0000E+00  0.8150E+01  0.6592E+01  0.6837E+02  0.9418E-01  0.9317E-01  0.2033E-01  0.2003E-01  0.4488E+00  0.4467E+00  0.1110E-01  0.3311E-01  0.0000E+00  0.7631E-04  0.6885E-03  0.1536E-02  0.3361E-05  0.0000E+00  0.7439E+02  0.7158E+02  0.1039E+04  0.1011E+04  0.0000E+00  0.0000E+00  0.0000E+00  0.0000E+00  0.0000E+00  0.0000E+00  0.0000E+00  0.0000E+00  0.0000E+00  0.0000E+00  0.0000E+00  0.0000E+00  0.0000E+00  0.0000E+00  0.0000E+00  0.0000E+00  0.0000E+00  0.5730E+00  0.2157E-01  0.0000E+00  0.0000E+00
REACH    2        0     5  0.1473E+01  0.1296E-01  0.1294E-01  0.2011E-04  0.0000E+00  0.2776E-01  0.2776E-01  0.4766E+00  0.1091E-01  0.1088E-01  0.2373E-02  0.2356E-02  0.1124E+00  0.1123E+00  0.0000E+00  0.4805E-02  0.0000E+00  0.0000E+00  0.6549E-04  0.1399E-03  0.8357E-06  0.4948E-06  0.1947E+00  0.1925E+00  0.4130E+03  0.4003E+03  0.0000E+00  0.0000E+00  0.0000E+00  0.0000E+00  0.0000E+00  0.0000E+00  0.0000E+00  0.0000E+00  0.0000E+00  0.0000E+00  0.0000E+00  0.0000E+00  0.0000E+00  0.0000E+00  0.0000E+00  0.0000E+00  0.0000E+00  0.1280E+00  0.2496E-02  0.0000E+00  0.0000E+00
REACH    3        0     5  0.1377E+01  0.7285E-02  0.7259E-02  0.2660E-04  0.0000E+00  0.8122E+01  0.8122E+01  0.2689E+03  0.7178E-02  0.7135E-02  0.1548E-02  0.1536E-02  0.2209E+00  0.2202E+00  0.0000E+00  0.6292E-02  0.0000E+00  0.0000E+00  0.5883E-04  0.1460E-03  0.4600E-06  0.5922E-07  0.7573E+02  0.7420E+02  0.2278E+03  0.1924E+03  0.0000E+00  0.0000E+00  0.0000E+00  0.0000E+00  0.0000E+00  0.0000E+00  0.0000E+00  0.0000E+00  0.0000E+00  0.0000E+00  0.0000E+00  0.0000E+00  0.0000E+00  0.0000E+00  0.0000E+00  0.0000E+00  0.0000E+00  0.2336E+00  0.1682E-02  0.0000E+00  0.0000E+00
REACH    1        0     6  0.5330E+01  0.2521E-01  0.2506E-01  0.1503E-03  0.0000E+00  0.5587E-02  0.3506E+01  0.5345E+02  0.8152E-05  0.0000E+00  0.3116E-04  0.0000E+00  0.8045E+00  0.8014E+00  0.9992E-02  0.2979E-01  0.0000E+00  0.1063E-03  0.1014E-04  0.0000E+00  0.5063E-17  0.0000E+00  0.1036E-02  0.9813E-03  0.7662E+03  0.7663E+03  0.0000E+00  0.0000E+00  0.0000E+00  0.0000E+00  0.0000E+00  0.0000E+00  0.0000E+00  0.0000E+00  0.0000E+00  0.0000E+00  0.0000E+00  0.0000E+00  0.0000E+00  0.0000E+00  0.0000E+00  0.0000E+00  0.0000E+00  0.8313E+00  0.0000E+00  0.0000E+00  0.0000E+00
REACH    2        0     6  0.1473E+01  0.1100E-01  0.1098E-01  0.1572E-04  0.0000E+00  0.3805E-06  0.3805E-06  0.1364E-04  0.4341E-05  0.0000E+00  0.1297E-04  0.0000E+00  0.2491E+00  0.2489E+00  0.0000E+00  0.4326E-02  0.0000E+00  0.0000E+00  0.4327E-05  0.0000E+00  0.9209E-18  0.0000E+00  0.0000E+00  0.0000E+00  0.3462E+03  0.3358E+03  0.0000E+00  0.0000E+00  0.0000E+00  0.0000E+00  0.0000E+00  0.0000E+00  0.0000E+00  0.0000E+00  0.0000E+00  0.0000E+00  0.0000E+00  0.0000E+00  0.0000E+00  0.0000E+00  0.0000E+00  0.0000E+00  0.0000E+00  0.2532E+00  0.0000E+00  0.0000E+00  0.0000E+00
REACH    3        0     6  0.1377E+01  0.2715E-02  0.2694E-02  0.2119E-04  0.0000E+00  0.5587E-02  0.5587E-02  0.3306E+00  0.4023E-05  0.1027E-05  0.1209E-04  0.1014E-04  0.2931E+00  0.2915E+00  0.0000E+00  0.5666E-02  0.0000E+00  0.0000E+00  0.4010E-05  0.3134E-05  0.4202E-13  0.0000E+00  0.1061E-02  0.1036E-02  0.8411E+02  0.8231E+02  0.0000E+00  0.0000E+00  0.0000E+00  0.0000E+00  0.0000E+00  0.0000E+00  0.0000E+00  0.0000E+00  0.0000E+00  0.0000E+00  0.0000E+00  0.0000E+00  0.0000E+00  0.0000E+00  0.0000E+00  0.0000E+00  0.0000E+00  0.2972E+00  0.1327E-04  0.0000E+00  0.0000E+00
REACH    1        0     7  0.5330E+01  0.1886E-01  0.1872E-01  0.1436E-03  0.0000E+00  0.1186E+01  0.3313E+01  0.6615E+02  0.1033E-04  0.0000E+00  0.4843E-04  0.2092E-04  0.7626E+00  0.7573E+00  0.9686E-02  0.2882E-01  0.0000E+00  0.7948E-04  0.1662E-04  0.0000E+00  0.8874E-17  0.0000E+00  0.3856E+01  0.3614E+01  0.5999E+03  0.5985E+03  0.0000E+00  0.0000E+00  0.0000E+00  0.0000E+00  0.0000E+00  0.0000E+00  0.0000E+00  0.0000E+00  0.0000E+00  0.0000E+00  0.0000E+00  0.0000E+00  0.0000E+00  0.0000E+00  0.0000E+00  0.0000E+00  0.0000E+00  0.7862E+00  0.2092E-04  0.0000E+00  0.0000E+00
REACH    2        0     7  0.1473E+01  0.8474E-02  0.8459E-02  0.1500E-04  0.0000E+00  0.3932E-06  0.3932E-06  0.1793E-04  0.4466E-05  0.0000E+00  0.1340E-04  0.0000E+00  0.1988E+00  0.1985E+00  0.0000E+00  0.4207E-02  0.0000E+00  0.0000E+00  0.4471E-05  0.0000E+00  0.1662E-17  0.0000E+00  0.0000E+00  0.0000E+00  0.2811E+03  0.2725E+03  0.0000E+00  0.0000E+00  0.0000E+00  0.0000E+00  0.0000E+00  0.0000E+00  0.0000E+00  0.0000E+00  0.0000E+00  0.0000E+00  0.0000E+00  0.0000E+00  0.0000E+00  0.0000E+00  0.0000E+00  0.0000E+00  0.0000E+00  0.2027E+00  0.0000E+00  0.0000E+00  0.0000E+00
REACH    3        0     7  0.1377E+01  0.1480E-02  0.1460E-02  0.2034E-04  0.0000E+00  0.1186E+01  0.1186E+01  0.3078E+03  0.4213E-05  0.3093E-05  0.2807E-04  0.2672E-04  0.2528E+00  0.2499E+00  0.0000E+00  0.5479E-02  0.0000E+00  0.0000E+00  0.4143E-05  0.9372E-05  0.3432E-08  0.0000E+00  0.4276E+01  0.3856E+01  0.4793E+02  0.4318E+02  0.0000E+00  0.0000E+00  0.0000E+00  0.0000E+00  0.0000E+00  0.0000E+00  0.0000E+00  0.0000E+00  0.0000E+00  0.0000E+00  0.0000E+00  0.0000E+00  0.0000E+00  0.0000E+00  0.0000E+00  0.0000E+00  0.0000E+00  0.2554E+00  0.3609E-04  0.0000E+00  0.0000E+00
REACH    1        0     8  0.5330E+01  0.1752E-01  0.1740E-01  0.1172E-03  0.0000E+00  0.2328E+02  0.2869E+01  0.5945E+02  0.1959E-02  0.1927E-02  0.4753E-03  0.4430E-03  0.1621E+01  0.1614E+01  0.1014E-01  0.3019E-01  0.0000E+00  0.9490E-04  0.1476E-04  0.0000E+00  0.1345E-16  0.0000E+00  0.2576E+03  0.2395E+03  0.5091E+03  0.4170E+03  0.0000E+00  0.0000E+00  0.0000E+00  0.0000E+00  0.0000E+00  0.0000E+00  0.0000E+00  0.0000E+00  0.0000E+00  0.0000E+00  0.0000E+00  0.0000E+00  0.0000E+00  0.0000E+00  0.0000E+00  0.0000E+00  0.0000E+00  0.1646E+01  0.4430E-03  0.0000E+00  0.0000E+00
[...]
REACH    1        0     3  0.5330E+01  0.3595E+00  0.3594E+00  0.9135E-04  0.0000E+00  0.5132E+05  0.2342E+03  0.2185E+03  0.3958E+02  0.3950E+02  0.8865E+01  0.8839E+01  0.4793E+02  0.4792E+02  0.1362E-01  0.4084E-01  0.0000E+00  0.0000E+00  0.8501E-01  0.1104E+00  0.1957E+00  0.1747E+00  0.1167E+07  0.1153E+07  0.6264E+04  0.3928E+04  0.0000E+00  0.0000E+00  0.0000E+00  0.0000E+00  0.0000E+00  0.0000E+00  0.0000E+00  0.0000E+00  0.0000E+00  0.0000E+00  0.0000E+00  0.0000E+00  0.0000E+00  0.0000E+00  0.0000E+00  0.0000E+00  0.0000E+00  0.8746E+02  0.8949E+01  0.0000E+00  0.0000E+00
REACH    2        0     3  0.1473E+01  0.1107E+00  0.1107E+00  0.5215E-05  0.0000E+00  0.1864E+05  0.1864E+05  0.3307E+05  0.1426E+01  0.1425E+01  0.3075E+00  0.3072E+00  0.1444E+02  0.1444E+02  0.0000E+00  0.5816E-02  0.0000E+00  0.0000E+00  0.5352E-02  0.6085E-02  0.5643E-02  0.5372E-02  0.3873E+06  0.3859E+06  0.3024E+04  0.1128E+04  0.0000E+00  0.0000E+00  0.0000E+00  0.0000E+00  0.0000E+00  0.0000E+00  0.0000E+00  0.0000E+00  0.0000E+00  0.0000E+00  0.0000E+00  0.0000E+00  0.0000E+00  0.0000E+00  0.0000E+00  0.0000E+00  0.0000E+00  0.1587E+02  0.3133E+00  0.0000E+00  0.0000E+00
REACH    3        0     3  0.1377E+01  0.1026E+00  0.1026E+00  0.1349E-04  0.0000E+00  0.1483E+05  0.1483E+05  0.3198E+05  0.1288E+01  0.1286E+01  0.3106E+00  0.3101E+00  0.1392E+02  0.1391E+02  0.0000E+00  0.7802E-02  0.0000E+00  0.0000E+00  0.5366E-02  0.6377E-02  0.3507E-02  0.3283E-02  0.3179E+06  0.3163E+06  0.2795E+04  0.1386E+04  0.0000E+00  0.0000E+00  0.0000E+00  0.0000E+00  0.0000E+00  0.0000E+00  0.0000E+00  0.0000E+00  0.0000E+00  0.0000E+00  0.0000E+00  0.0000E+00  0.0000E+00  0.0000E+00  0.0000E+00  0.0000E+00  0.0000E+00  0.1521E+02  0.3165E+00  0.0000E+00  0.0000E+00
REACH    1        0     4  0.5330E+01  0.1875E+00  0.1874E+00  0.1068E-03  0.0000E+00  0.2705E+05  0.9610E+02  0.1581E+03  0.1229E+02  0.1226E+02  0.2773E+01  0.2764E+01  0.1357E+02  0.1356E+02  0.1227E-01  0.3677E-01  0.0000E+00  0.0000E+00  0.2842E-01  0.3762E-01  0.5235E-01  0.4665E-01  0.7402E+06  0.7301E+06  0.4071E+04  0.3571E+04  0.0000E+00  0.0000E+00  0.0000E+00  0.0000E+00  0.0000E+00  0.0000E+00  0.0000E+00  0.0000E+00  0.0000E+00  0.0000E+00  0.0000E+00  0.0000E+00  0.0000E+00  0.0000E+00  0.0000E+00  0.0000E+00  0.0000E+00  0.2586E+02  0.2801E+01  0.0000E+00  0.0000E+00
REACH    2        0     4  0.1473E+01  0.5369E-01  0.5368E-01  0.1137E-04  0.0000E+00  0.8779E+04  0.8779E+04  0.1903E+05  0.3618E+00  0.3616E+00  0.7798E-01  0.7789E-01  0.3636E+01  0.3635E+01  0.0000E+00  0.5239E-02  0.0000E+00  0.0000E+00  0.1602E-02  0.1902E-02  0.1268E-02  0.1202E-02  0.2299E+06  0.2290E+06  0.1411E+04  0.1009E+04  0.0000E+00  0.0000E+00  0.0000E+00  0.0000E+00  0.0000E+00  0.0000E+00  0.0000E+00  0.0000E+00  0.0000E+00  0.0000E+00  0.0000E+00  0.0000E+00  0.0000E+00  0.0000E+00  0.0000E+00  0.0000E+00  0.0000E+00  0.4002E+01  0.7980E-01  0.0000E+00  0.0000E+00
REACH    3        0     4  0.1377E+01  0.5135E-01  0.5133E-01  0.1560E-04  0.0000E+00  0.8901E+04  0.8901E+04  0.1662E+05  0.3608E+00  0.3604E+00  0.8679E-01  0.8667E-01  0.4469E+01  0.4469E+01  0.0000E+00  0.7028E-02  0.0000E+00  0.0000E+00  0.1572E-02  0.1978E-02  0.1178E-02  0.1094E-02  0.2315E+06  0.2302E+06  0.1337E+04  0.9702E+03  0.0000E+00  0.0000E+00  0.0000E+00  0.0000E+00  0.0000E+00  0.0000E+00  0.0000E+00  0.0000E+00  0.0000E+00  0.0000E+00  0.0000E+00  0.0000E+00  0.0000E+00  0.0000E+00  0.0000E+00  0.0000E+00  0.0000E+00  0.4836E+01  0.8864E-01  0.0000E+00  0.0000E+00
REACH    1        0     5  0.5330E+01  0.8354E-01  0.8330E-01  0.2353E-03  0.0000E+00  0.7782E-02  0.2434E+02  0.1071E+03  0.8471E+00  0.8421E+00  0.1803E+00  0.1789E+00  0.3041E+00  0.3034E+00  0.1159E-01  0.3466E-01  0.0000E+00  0.0000E+00  0.2734E-02  0.4613E-02  0.1918E-03  0.1076E-03  0.0000E+00  0.0000E+00  0.2543E+04  0.2552E+04  0.0000E+00  0.0000E+00  0.0000E+00  0.0000E+00  0.0000E+00  0.0000E+00  0.0000E+00  0.0000E+00  0.0000E+00  0.0000E+00  0.0000E+00  0.0000E+00  0.0000E+00  0.0000E+00  0.0000E+00  0.0000E+00  0.0000E+00  0.1180E+01  0.1835E+00  0.0000E+00  0.0000E+00
REACH    2        0     5  0.1473E+01  0.2391E-01  0.2388E-01  0.2489E-04  0.0000E+00  0.1258E-02  0.1258E-02  0.1311E-01  0.2899E-01  0.2893E-01  0.6096E-02  0.6072E-02  0.4933E-01  0.4929E-01  0.0000E+00  0.4971E-02  0.0000E+00  0.0000E+00  0.1900E-03  0.3088E-03  0.4807E-05  0.3830E-05  0.0000E+00  0.0000E+00  0.7540E+03  0.7318E+03  0.0000E+00  0.0000E+00  0.0000E+00  0.0000E+00  0.0000E+00  0.0000E+00  0.0000E+00  0.0000E+00  0.0000E+00  0.0000E+00  0.0000E+00  0.0000E+00  0.0000E+00  0.0000E+00  0.0000E+00  0.0000E+00  0.0000E+00  0.8320E-01  0.6381E-02  0.0000E+00  0.0000E+00
REACH    3        0     5  0.1377E+01  0.1588E-01  0.1584E-01  0.3385E-04  0.0000E+00  0.1043E-02  0.1043E-02  0.1281E-01  0.2383E-01  0.2375E-01  0.5023E-02  0.4996E-02  0.2230E+00  0.2226E+00  0.0000E+00  0.6616E-02  0.0000E+00  0.0000E+00  0.1730E-03  0.3228E-03  0.4434E-05  0.3087E-05  0.0000E+00  0.0000E+00  0.4930E+03  0.4852E+03  0.0000E+00  0.0000E+00  0.0000E+00  0.0000E+00  0.0000E+00  0.0000E+00  0.0000E+00  0.0000E+00  0.0000E+00  0.0000E+00  0.0000E+00  0.0000E+00  0.0000E+00  0.0000E+00  0.0000E+00  0.0000E+00  0.0000E+00  0.2529E+00  0.5319E-02  0.0000E+00  0.0000E+00
REACH    1        0     6  0.5330E+01  0.5931E-01  0.5908E-01  0.2296E-03  0.0000E+00  0.1087E-05  0.1663E+02  0.1087E+03  0.7475E-05  0.0000E+00  0.2464E-04  0.0000E+00  0.3977E+00  0.3965E+00  0.1052E-01  0.3144E-01  0.0000E+00  0.0000E+00  0.7011E-05  0.0000E+00  0.5424E-18  0.0000E+00  0.0000E+00  0.0000E+00  0.1775E+04  0.1781E+04  0.0000E+00  0.0000E+00  0.0000E+00  0.0000E+00  0.0000E+00  0.0000E+00  0.0000E+00  0.0000E+00  0.0000E+00  0.0000E+00  0.0000E+00  0.0000E+00  0.0000E+00  0.0000E+00  0.0000E+00  0.0000E+00  0.0000E+00  0.4279E+00  0.0000E+00  0.0000E+00  0.0000E+00
REACH    2        0     6  0.1473E+01  0.1877E-01  0.1874E-01  0.2456E-04  0.0000E+00  0.3805E-06  0.3805E-06  0.7890E-05  0.4400E-05  0.0000E+00  0.1298E-04  0.0000E+00  0.1445E+00  0.1444E+00  0.0000E+00  0.4567E-02  0.0000E+00  0.0000E+00  0.4327E-05  0.0000E+00  0.3102E-18  0.0000E+00  0.0000E+00  0.0000E+00  0.5825E+03  0.5651E+03  0.0000E+00  0.0000E+00  0.0000E+00  0.0000E+00  0.0000E+00  0.0000E+00  0.0000E+00  0.0000E+00  0.0000E+00  0.0000E+00  0.0000E+00  0.0000E+00  0.0000E+00  0.0000E+00  0.0000E+00  0.0000E+00  0.0000E+00  0.1489E+00  0.0000E+00  0.0000E+00  0.0000E+00
REACH    3        0     6  0.1377E+01  0.6139E-02  0.6106E-02  0.3230E-04  0.0000E+00  0.4506E-06  0.4506E-06  0.3340E-04  0.4067E-05  0.0000E+00  0.1203E-04  0.3548E-05  0.1536E+00  0.1529E+00  0.0000E+00  0.5954E-02  0.0000E+00  0.0000E+00  0.4010E-05  0.0000E+00  0.2933E-16  0.0000E+00  0.0000E+00  0.0000E+00  0.1876E+03  0.1840E+03  0.0000E+00  0.0000E+00  0.0000E+00  0.0000E+00  0.0000E+00  0.0000E+00  0.0000E+00  0.0000E+00  0.0000E+00  0.0000E+00  0.0000E+00  0.0000E+00  0.0000E+00  0.0000E+00  0.0000E+00  0.0000E+00  0.0000E+00  0.1588E+00  0.3548E-05  0.0000E+00  0.0000E+00
REACH    1        0     7  0.5330E+01  0.4183E-01  0.4160E-01  0.2316E-03  0.0000E+00  0.1124E-05  0.9218E+01  0.8219E+02  0.1022E-04  0.0000E+00  0.3328E-04  0.0000E+00  0.5849E+00  0.5835E+00  0.1042E-01  0.3110E-01  0.0000E+00  0.3357E-05  0.1640E-04  0.0000E+00  0.9633E-18  0.0000E+00  0.0000E+00  0.0000E+00  0.1303E+04  0.1306E+04  0.0000E+00  0.0000E+00  0.0000E+00  0.0000E+00  0.0000E+00  0.0000E+00  0.0000E+00  0.0000E+00  0.0000E+00  0.0000E+00  0.0000E+00  0.0000E+00  0.0000E+00  0.0000E+00  0.0000E+00  0.0000E+00  0.0000E+00  0.6146E+00  0.0000E+00  0.0000E+00  0.0000E+00
REACH    2        0     7  0.1473E+01  0.1439E-01  0.1437E-01  0.2485E-04  0.0000E+00  0.3932E-06  0.3932E-06  0.1029E-04  0.4466E-05  0.0000E+00  0.1340E-04  0.0000E+00  0.2518E+00  0.2516E+00  0.0000E+00  0.4621E-02  0.0000E+00  0.0000E+00  0.4471E-05  0.0000E+00  0.5443E-18  0.0000E+00  0.0000E+00  0.0000E+00  0.4652E+03  0.4511E+03  0.0000E+00  0.0000E+00  0.0000E+00  0.0000E+00  0.0000E+00  0.0000E+00  0.0000E+00  0.0000E+00  0.0000E+00  0.0000E+00  0.0000E+00  0.0000E+00  0.0000E+00  0.0000E+00  0.0000E+00  0.0000E+00  0.0000E+00  0.2562E+00  0.0000E+00  0.0000E+00  0.0000E+00
REACH    3        0     7  0.1377E+01  0.1208E-02  0.1176E-02  0.3248E-04  0.0000E+00  0.4657E-06  0.4657E-06  0.2118E-03  0.4139E-05  0.2979E-05  0.1242E-04  0.1157E-04  0.2504E+00  0.2491E+00  0.0000E+00  0.5804E-02  0.0000E+00  0.0000E+00  0.4143E-05  0.9158E-05  0.2262E-15  0.0000E+00  0.0000E+00  0.0000E+00  0.3851E+02  0.3696E+02  0.0000E+00  0.0000E+00  0.0000E+00  0.0000E+00  0.0000E+00  0.0000E+00  0.0000E+00  0.0000E+00  0.0000E+00  0.0000E+00  0.0000E+00  0.0000E+00  0.0000E+00  0.0000E+00  0.0000E+00  0.0000E+00  0.0000E+00  0.2549E+00  0.2073E-04  0.0000E+00  0.0000E+00
REACH    1        0     8  0.5330E+01  0.3378E-01  0.3360E-01  0.1769E-03  0.0000E+00  0.1547E+00  0.6017E+01  0.6487E+02  0.4010E-04  0.2415E-04  0.4077E-04  0.9077E-05  0.4090E+01  0.4075E+01  0.1107E-01  0.3302E-01  0.0000E+00  0.9413E-04  0.1650E-04  0.0000E+00  0.1626E-17  0.0000E+00  0.1783E+01  0.1705E+01  0.1029E+04  0.1031E+04  0.0000E+00  0.0000E+00  0.0000E+00  0.0000E+00  0.0000E+00  0.0000E+00  0.0000E+00  0.0000E+00  0.0000E+00  0.0000E+00  0.0000E+00  0.0000E+00  0.0000E+00  0.0000E+00  0.0000E+00  0.0000E+00  0.0000E+00  0.4108E+01  0.9077E-05  0.0000E+00  0.0000E+00
REACH    2        0     8  0.1473E+01  0.1178E-01  0.1176E-01  0.1865E-04  0.0000E+00  0.1547E+00  0.1547E+00  0.3338E+01  0.3468E-04  0.2986E-04  0.2182E-04  0.8256E-05  0.5195E+00  0.5189E+00  0.0000E+00  0.4855E-02  0.0000E+00  0.0000E+00  0.4474E-05  0.0000E+00  0.2470E-07  0.0000E+00  0.1800E+01  0.1783E+01  0.3729E+03  0.3597E+03  0.0000E+00  0.0000E+00  0.0000E+00  0.0000E+00  0.0000E+00  0.0000E+00  0.0000E+00  0.0000E+00  0.0000E+00  0.0000E+00  0.0000E+00  0.0000E+00  0.0000E+00  0.0000E+00  0.0000E+00  0.0000E+00  0.0000E+00  0.5237E+00  0.8256E-05  0.0000E+00  0.0000E+00
REACH    3        0     8  0.1377E+01  0.1518E-02  0.1493E-02  0.2486E-04  0.0000E+00  0.4657E-06  0.4657E-06  0.2387E-03  0.4139E-05  0.2996E-05  0.1242E-04  0.1081E-04  0.6034E+00  0.5971E+00  0.0000E+00  0.6212E-02  0.0000E+00  0.0000E+00  0.4143E-05  0.9252E-05  0.2275E-15  0.0000E+00  0.0000E+00  0.0000E+00  0.4719E+02  0.4578E+02  0.0000E+00  0.0000E+00  0.0000E+00  0.0000E+00  0.0000E+00  0.0000E+00  0.0000E+00  0.0000E+00  0.0000E+00  0.0000E+00  0.0000E+00  0.0000E+00  0.0000E+00  0.0000E+00  0.0000E+00  0.0000E+00  0.0000E+00  0.6033E+00  0.2006E-04  0.0000E+00  0.0000E+00
REACH    1        0     9  0.5330E+01  0.3704E-01  0.3690E-01  0.1409E-03  0.0000E+00  0.3486E+04  0.8015E+01  0.6083E+02  0.6491E+00  0.6459E+00  0.1490E+00  0.1480E+00  0.1119E+02  0.1117E+02  0.1099E-01  0.3280E-01  0.0000E+00  0.1163E-03  0.2652E-02  0.4421E-02  0.1462E-01  0.1041E-01  0.7618E+05  0.7445E+05  0.9244E+03  0.8659E+03  0.0000E+00  0.0000E+00  0.0000E+00  0.0000E+00  0.0000E+00  0.0000E+00  0.0000E+00  0.0000E+00  0.0000E+00  0.0000E+00  0.0000E+00  0.0000E+00  0.0000E+00  0.0000E+00  0.0000E+00  0.0000E+00  0.0000E+00  0.1185E+02  0.1524E+00  0.0000E+00  0.0000E+00
REACH    2        0     9  0.1473E+01  0.1278E-01  0.1276E-01  0.1469E-04  0.0000E+00  0.2033E+04  0.2033E+04  0.6698E+04  0.3440E-01  0.3434E-01  0.7494E-02  0.7475E-02  0.7786E+00  0.7782E+00  0.0000E+00  0.4809E-02  0.0000E+00  0.0000E+00  0.2006E-03  0.3263E-03  0.1086E-02  0.9804E-03  0.4218E+05  0.4198E+05  0.3632E+03  0.2941E+03  0.0000E+00  0.0000E+00  0.0000E+00  0.0000E+00  0.0000E+00  0.0000E+00  0.0000E+00  0.0000E+00  0.0000E+00  0.0000E+00  0.0000E+00  0.0000E+00  0.0000E+00  0.0000E+00  0.0000E+00  0.0000E+00  0.0000E+00  0.8173E+00  0.7801E-02  0.0000E+00  0.0000E+00
REACH    3        0     9  0.1377E+01  0.4741E-02  0.4721E-02  0.1988E-04  0.0000E+00  0.9669E+03  0.9669E+03  0.6455E+04  0.2658E-01  0.2649E-01  0.7938E-02  0.7907E-02  0.1090E+01  0.1086E+01  0.0000E+00  0.6182E-02  0.0000E+00  0.0000E+00  0.1723E-03  0.3322E-03  0.2139E-02  0.1633E-02  0.2301E+05  0.2283E+05  0.1206E+03  0.8275E+02  0.0000E+00  0.0000E+00  0.0000E+00  0.0000E+00  0.0000E+00  0.0000E+00  0.0000E+00  0.0000E+00  0.0000E+00  0.0000E+00  0.0000E+00  0.0000E+00  0.0000E+00  0.0000E+00  0.0000E+00  0.0000E+00  0.0000E+00  0.1119E+01  0.8239E-02  0.0000E+00  0.0000E+00
REACH    1        0    10  0.5330E+01  0.7787E-01  0.7778E-01  0.9128E-04  0.0000E+00  0.1505E+05  0.3025E+02  0.9747E+02  0.6094E+01  0.6073E+01  0.1392E+01  0.1385E+01  0.1568E+02  0.1567E+02  0.1176E-01  0.3521E-01  0.0000E+00  0.5356E-04  0.1531E-01  0.2296E-01  0.7163E-01  0.5626E-01  0.5297E+06  0.5212E+06  0.1676E+04  0.1369E+04  0.0000E+00  0.0000E+00  0.0000E+00  0.0000E+00  0.0000E+00  0.0000E+00  0.0000E+00  0.0000E+00  0.0000E+00  0.0000E+00  0.0000E+00  0.0000E+00  0.0000E+00  0.0000E+00  0.0000E+00  0.0000E+00  0.0000E+00  0.2178E+02  0.1408E+01  0.0000E+00  0.0000E+00
REACH    2        0    10  0.1473E+01  0.2642E-01  0.2641E-01  0.9199E-05  0.0000E+00  0.5207E+04  0.5207E+04  0.1001E+05  0.1877E+00  0.1875E+00  0.4066E-01  0.4060E-01  0.6014E+01  0.6012E+01  0.0000E+00  0.5048E-02  0.0000E+00  0.0000E+00  0.9355E-03  0.1285E-02  0.2199E-02  0.2024E-02  0.1851E+06  0.1843E+06  0.7300E+03  0.4638E+03  0.0000E+00  0.0000E+00  0.0000E+00  0.0000E+00  0.0000E+00  0.0000E+00  0.0000E+00  0.0000E+00  0.0000E+00  0.0000E+00  0.0000E+00  0.0000E+00  0.0000E+00  0.0000E+00  0.0000E+00  0.0000E+00  0.0000E+00  0.6205E+01  0.4188E-01  0.0000E+00  0.0000E+00
REACH    3        0    10  0.1377E+01  0.1858E-01  0.1857E-01  0.1272E-04  0.0000E+00  0.3979E+04  0.3979E+04  0.1102E+05  0.1725E+00  0.1722E+00  0.4589E-01  0.4578E-01  0.4562E+01  0.4559E+01  0.0000E+00  0.6714E-02  0.0000E+00  0.0000E+00  0.8745E-03  0.1325E-02  0.5295E-02  0.4080E-02  0.1429E+06  0.1420E+06  0.4851E+03  0.3256E+03  0.0000E+00  0.0000E+00  0.0000E+00  0.0000E+00  0.0000E+00  0.0000E+00  0.0000E+00  0.0000E+00  0.0000E+00  0.0000E+00  0.0000E+00  0.0000E+00  0.0000E+00  0.0000E+00  0.0000E+00  0.0000E+00  0.0000E+00  0.4738E+01  0.4710E-01  0.0000E+00  0.0000E+00
REACH    1        0    11  0.5330E+01  0.1266E+00  0.1265E+00  0.7801E-04  0.0000E+00  0.1086E+05  0.4273E+02  0.1229E+03  0.7358E+01  0.7340E+01  0.1653E+01  0.1647E+01  0.4239E+02  0.4237E+02  0.7654E-02  0.2291E-01  0.0000E+00  0.3073E-04  0.1627E-01  0.2272E-01  0.9273E-01  0.7546E-01  0.1922E+06  0.1890E+06  0.1528E+04  0.9055E+03  0.0000E+00  0.0000E+00  0.0000E+00  0.0000E+00  0.0000E+00  0.0000E+00  0.0000E+00  0.0000E+00  0.0000E+00  0.0000E+00  0.0000E+00  0.0000E+00  0.0000E+00  0.0000E+00  0.0000E+00  0.0000E+00  0.0000E+00  0.4974E+02  0.1669E+01  0.0000E+00  0.0000E+00
REACH    2        0    11  0.1473E+01  0.4060E-01  0.4059E-01  0.6186E-05  0.0000E+00  0.2831E+04  0.2831E+04  0.1642E+05  0.1052E+00  0.1051E+00  0.2283E-01  0.2281E-01  0.1550E+02  0.1550E+02  0.0000E+00  0.3273E-02  0.0000E+00  0.0000E+00  0.5338E-03  0.7221E-03  0.6059E-03  0.5667E-03  0.4267E+05  0.4246E+05  0.8021E+03  0.2890E+03  0.0000E+00  0.0000E+00  0.0000E+00  0.0000E+00  0.0000E+00  0.0000E+00  0.0000E+00  0.0000E+00  0.0000E+00  0.0000E+00  0.0000E+00  0.0000E+00  0.0000E+00  0.0000E+00  0.0000E+00  0.0000E+00  0.0000E+00  0.1560E+02  0.2353E-01  0.0000E+00  0.0000E+00
REACH    3        0    11  0.1377E+01  0.3425E-01  0.3424E-01  0.9016E-05  0.0000E+00  0.2987E+04  0.2987E+04  0.1947E+05  0.1286E+00  0.1284E+00  0.2858E-01  0.2853E-01  0.1333E+02  0.1333E+02  0.0000E+00  0.4381E-02  0.0000E+00  0.0000E+00  0.6430E-03  0.8985E-03  0.1374E-02  0.1233E-02  0.4819E+05  0.4784E+05  0.6457E+03  0.3240E+03  0.0000E+00  0.0000E+00  0.0000E+00  0.0000E+00  0.0000E+00  0.0000E+00  0.0000E+00  0.0000E+00  0.0000E+00  0.0000E+00  0.0000E+00  0.0000E+00  0.0000E+00  0.0000E+00  0.0000E+00  0.0000E+00  0.0000E+00  0.1347E+02  0.2943E-01  0.0000E+00  0.0000E+00
REACH    1        0  1998  0.5330E+01  0.1944E+00  0.1942E+00  0.1356E-03  0.0000E+00  0.4952E+06  0.1361E+04  0.1406E+03  0.1550E+05  0.1547E+05  0.3421E+04  0.3414E+04  0.3411E+03  0.3409E+03  0.3427E+01  0.1028E+02  0.0000E+00  0.6262E-02  0.2334E+01  0.5785E+01  0.1418E+03  0.1329E+03  0.1696E+08  0.1679E+08  0.3679E+05  0.2661E+05  0.0000E+00  0.0000E+00  0.0000E+00  0.0000E+00  0.0000E+00  0.0000E+00  0.0000E+00  0.0000E+00  0.0000E+00  0.0000E+00  0.0000E+00  0.0000E+00  0.0000E+00  0.0000E+00  0.0000E+00  0.0000E+00  0.0000E+00  0.1583E+05  0.3419E+04  0.0000E+00  0.0000E+00
REACH    2        0  1998  0.1473E+01  0.5951E-01  0.5950E-01  0.1325E-04  0.0000E+00  0.1851E+06  0.1851E+06  0.1789E+05  0.4371E+04  0.4369E+04  0.9655E+03  0.9649E+03  0.1000E+03  0.9999E+02  0.0000E+00  0.1472E+01  0.0000E+00  0.0000E+00  0.3050E+00  0.6723E+00  0.3677E+02  0.3587E+02  0.6046E+07  0.6029E+07  0.1610E+05  0.8512E+04  0.0000E+00  0.0000E+00  0.0000E+00  0.0000E+00  0.0000E+00  0.0000E+00  0.0000E+00  0.0000E+00  0.0000E+00  0.0000E+00  0.0000E+00  0.0000E+00  0.0000E+00  0.0000E+00  0.0000E+00  0.0000E+00  0.0000E+00  0.4470E+04  0.9656E+03  0.0000E+00  0.0000E+00
REACH    3        0  1998  0.1377E+01  0.5126E-01  0.5124E-01  0.1879E-04  0.0000E+00  0.1387E+06  0.1387E+06  0.1659E+05  0.4041E+04  0.4038E+04  0.8925E+03  0.8917E+03  0.9602E+02  0.9600E+02  0.0000E+00  0.1955E+01  0.0000E+00  0.0000E+00  0.2847E+00  0.6778E+00  0.3289E+02  0.3179E+02  0.4592E+07  0.4572E+07  0.1339E+05  0.6983E+04  0.0000E+00  0.0000E+00  0.0000E+00  0.0000E+00  0.0000E+00  0.0000E+00  0.0000E+00  0.0000E+00  0.0000E+00  0.0000E+00  0.0000E+00  0.0000E+00  0.0000E+00  0.0000E+00  0.0000E+00  0.0000E+00  0.0000E+00  0.4136E+04  0.8924E+03  0.0000E+00  0.0000E+00
REACH    1        0   9.7  0.5330E+01  0.1589E+00  0.1588E+00  0.1011E-03  0.0000E+00  0.2741E+06  0.1055E+04  0.1362E+03  0.2394E+05  0.2390E+05  0.5266E+04  0.5250E+04  0.7709E+03  0.7706E+03  0.6496E+01  0.1948E+02  0.0000E+00  0.1451E-01  0.2396E+01  0.6463E+01  0.1240E+03  0.1111E+03  0.7856E+07  0.7766E+07  0.3511E+05  0.2340E+05  0.0000E+00  0.0000E+00  0.0000E+00  0.0000E+00  0.0000E+00  0.0000E+00  0.0000E+00  0.0000E+00  0.0000E+00  0.0000E+00  0.0000E+00  0.0000E+00  0.0000E+00  0.0000E+00  0.0000E+00  0.0000E+00  0.0000E+00  0.2469E+05  0.5257E+04  0.0000E+00  0.0000E+00
REACH    2        0   9.7  0.1473E+01  0.4878E-01  0.4877E-01  0.9086E-05  0.0000E+00  0.8194E+05  0.8194E+05  0.1320E+05  0.6801E+04  0.6798E+04  0.1496E+04  0.1495E+04  0.2327E+03  0.2327E+03  0.0000E+00  0.2732E+01  0.0000E+00  0.0000E+00  0.2566E+00  0.6984E+00  0.2910E+02  0.2800E+02  0.2101E+07  0.2094E+07  0.1605E+05  0.9335E+04  0.0000E+00  0.0000E+00  0.0000E+00  0.0000E+00  0.0000E+00  0.0000E+00  0.0000E+00  0.0000E+00  0.0000E+00  0.0000E+00  0.0000E+00  0.0000E+00  0.0000E+00  0.0000E+00  0.0000E+00  0.0000E+00  0.0000E+00  0.7033E+04  0.1496E+04  0.0000E+00  0.0000E+00
REACH    3        0   9.7  0.1377E+01  0.4552E-01  0.4551E-01  0.1353E-04  0.0000E+00  0.7917E+05  0.7917E+05  0.1600E+05  0.6474E+04  0.6469E+04  0.1425E+04  0.1423E+04  0.2252E+03  0.2252E+03  0.0000E+00  0.3764E+01  0.0000E+00  0.0000E+00  0.2824E+00  0.7757E+00  0.2936E+02  0.2778E+02  0.2075E+07  0.2064E+07  0.1430E+05  0.6427E+04  0.0000E+00  0.0000E+00  0.0000E+00  0.0000E+00  0.0000E+00  0.0000E+00  0.0000E+00  0.0000E+00  0.0000E+00  0.0000E+00  0.0000E+00  0.0000E+00  0.0000E+00  0.0000E+00  0.0000E+00  0.0000E+00  0.0000E+00  0.6698E+04  0.1424E+04  0.0000E+00  0.0000E+00
