1
    SWAT Dec 23 2016    VER 2016/Rev 664                                                                 0/ 0/   0      0: 0: 0

    General Input/Output section (file.cio):                                        
    5/31/2025 12:00:00 AM ARCGIS-SWAT interface AV                                  
                                                                                    
         Number of years in run:   10
         Area of watershed:        5.330 km2
1
    SWAT Dec 23 2016    VER 2016/Rev 664                                            

    General Input/Output section (file.cio):                                        
    5/31/2025 12:00:00 AM ARCGIS-SWAT interface AV                                  
                                                                                    
Annual Summary for Watershed in year    1 of simulation

UNIT                                    PERCO    TILE                           WATER     SED     NO3     NO3     NO3     NO3        N       P       P
TIME     PREC    SURQ    LATQ     GWQ    LATE       Q     SW       ET     PET   YIELD   YIELD    SURQ    LATQ    PERC    CROP  ORGANIC SOLUBLE ORGANIC TILENO3
         (mm)    (mm)    (mm)    (mm)    (mm)    (mm)    (mm)    (mm)    (mm)    (mm)   (t/ha)  ------------------(kg nutrient/ha)-------------------- (kg/ha)
    3  152.49    5.49   49.21    0.02    8.61    0.00  114.79    3.64    7.00   54.73   13.32    0.00    0.86    1.25    0.00    36.24    0.00    4.44    0.00
    4   69.89    7.26   68.78    2.20   28.01    0.00  119.58   20.27   24.42   80.08   30.41    0.00    1.05    3.72    0.00    41.97    0.00    5.14    0.00
    5   20.44    0.25   15.18    5.53    5.60    0.00  107.31   36.93   51.48   25.21    0.59    0.00    0.12    0.53    0.00     0.35    0.00    0.04    0.00
    6   16.29    0.00    5.93    4.54    1.38    0.00  100.07   29.30   50.54   14.77    0.00    0.00    0.03    0.11    0.00     0.00    0.00    0.00    0.00
    7   11.30    0.04    4.41    2.86    1.17    0.00   92.92   29.41   66.52   11.10    0.08    0.00    0.02    0.08    0.00     0.04    0.00    0.01    0.00
    8   19.47    1.13   19.17    2.61    7.39    0.00   91.10   27.53   51.48   25.91    3.54    0.00    0.12    0.53    0.00     1.81    0.00    0.22    0.00
    9   26.64   10.23   37.40    5.11   16.38    0.00   95.04   19.95   33.67   55.18   28.11    0.00    0.20    0.91    0.00     5.46    0.00    0.67    0.00
   10   82.24    1.38   30.90    7.83   10.39    0.00  116.71   17.84   21.41   42.61    4.60    0.00    0.27    0.95    0.00     4.43    0.00    0.54    0.00
   11   85.52    5.47   36.00    6.32   22.49    0.00  120.97   11.75   13.74   51.55   22.71    0.00    0.50    2.37    0.00    20.44    0.00    2.50    0.00
   12   55.17    1.20   27.88    5.91   15.39    0.00  118.54   12.83   18.69   40.96    3.06    0.00    0.30    1.41    0.00     2.22    0.00    0.27    0.00

 1989  539.45   32.45  294.86   42.91  116.82    0.00  118.54  209.46  338.94  402.09  106.43    0.00    3.45   11.86    0.00   112.96    0.00   13.84    0.00
1
    SWAT Dec 23 2016    VER 2016/Rev 664                                            

    General Input/Output section (file.cio):                                        
    5/31/2025 12:00:00 AM ARCGIS-SWAT interface AV                                  
                                                                                    
Annual Summary for Watershed in year    2 of simulation

UNIT                                    PERCO    TILE                           WATER     SED     NO3     NO3     NO3     NO3        N       P       P
TIME     PREC    SURQ    LATQ     GWQ    LATE       Q     SW       ET     PET   YIELD   YIELD    SURQ    LATQ    PERC    CROP  ORGANIC SOLUBLE ORGANIC TILENO3
         (mm)    (mm)    (mm)    (mm)    (mm)    (mm)    (mm)    (mm)    (mm)    (mm)   (t/ha)  ------------------(kg nutrient/ha)-------------------- (kg/ha)
    1  137.45    5.26   77.39    6.02   41.32    0.00  118.63    7.63    8.64   96.71   12.49    0.00    0.63    3.55    0.00    14.49    0.00    1.77    0.00
    2   83.82    5.09   44.97    6.54   21.74    0.00  119.08   11.54   13.07   67.03   17.76    0.00    0.27    1.49    0.00    12.61    0.00    1.54    0.00
    3   72.95    2.83   39.92    6.69   17.54    0.00  117.73   22.92   28.31   63.39    8.65    0.00    0.20    1.01    0.00     5.98    0.00    0.73    0.00
    4   61.03    3.61   22.57    4.79    8.79    0.00  109.72   35.91   43.77   44.96   14.80    0.00    0.09    0.45    0.00     8.03    0.00    0.98    0.00
    5   25.62    0.01    3.63    2.16    0.07    0.00  100.71   32.38   62.05   18.87    0.02    0.00    0.00    0.00    0.00     0.00    0.00    0.00    0.00
    6   26.15    0.00    2.87    0.37    0.03    0.00   96.83   28.14   49.23   13.48    0.00    0.00    0.00    0.00    0.00     0.00    0.00    0.00    0.00
    7   17.35    0.00    1.41    0.09    0.03    0.00   89.99   24.08   53.15    9.65    0.00    0.00    0.00    0.00    0.00     0.00    0.00    0.00    0.00
    8   23.00    0.04    3.21    0.05    0.11    0.00   89.67   21.06   44.07    9.41    0.09    0.00    0.00    0.00    0.00     0.00    0.00    0.00    0.00
    9   29.84    0.13    5.28    0.08    0.17    0.00   92.69   22.28   34.43    9.90    0.24    0.00    0.00    0.00    0.00     0.00    0.00    0.00    0.00
   10   67.31    0.39   22.43    0.12    2.59    0.00  112.88   21.02   25.93   26.34    1.01    0.00    0.06    0.12    0.00     0.32    0.00    0.04    0.00
   11  136.31    8.01   63.99    1.01   32.64    0.00  118.75   12.87   14.16   76.53   25.89    0.00    0.44    2.17    0.00    13.62    0.00    1.67    0.00
   12  144.07    9.98   71.87    4.31   39.14    0.00  118.76    3.32    4.94   93.20   36.50    0.00    0.44    2.33    0.00    12.34    0.00    1.51    0.00

 1990  824.90   35.35  359.55   32.23  164.18    0.00  118.76  243.16  381.77  529.47  117.44    0.00    2.14   11.14    0.00    67.39    0.00    8.25    0.00
1
    SWAT Dec 23 2016    VER 2016/Rev 664                                            

    General Input/Output section (file.cio):                                        
    5/31/2025 12:00:00 AM ARCGIS-SWAT interface AV                                  
                                                                                    
Annual Summary for Watershed in year    3 of simulation

UNIT                                    PERCO    TILE                           WATER     SED     NO3     NO3     NO3     NO3        N       P       P
TIME     PREC    SURQ    LATQ     GWQ    LATE       Q     SW       ET     PET   YIELD   YIELD    SURQ    LATQ    PERC    CROP  ORGANIC SOLUBLE ORGANIC TILENO3
         (mm)    (mm)    (mm)    (mm)    (mm)    (mm)    (mm)    (mm)    (mm)    (mm)   (t/ha)  ------------------(kg nutrient/ha)-------------------- (kg/ha)
    1  115.13    5.90   76.10    6.75   39.48    0.00  118.58    3.10    5.06  100.58   16.14    0.00    0.32    1.76    0.00     9.23    0.00    1.13    0.00
    2  137.61   15.40   78.13    7.56   38.44    0.00  118.71   12.23   15.04  115.69   60.67    0.00    0.25    1.33    0.00    21.08    0.00    2.58    0.00
    3  155.84   10.63   88.60    9.73   41.53    0.00  117.77   17.88   20.99  129.52   34.07    0.00    0.23    1.17    0.00     7.30    0.00    0.89    0.00
    4   70.09    2.49   34.80    8.35   15.27    0.00  116.05   24.34   26.38   67.73   10.18    0.00    0.07    0.35    0.00     1.22    0.00    0.15    0.00
    5   31.12    0.07    7.52    5.46    1.89    0.00  105.28   34.28   46.60   34.49    0.25    0.00    0.01    0.03    0.00     0.02    0.00    0.00    0.00
    6   16.60    0.00    1.15    2.42    0.03    0.00   94.99   27.08   55.21   20.80    0.00    0.00    0.00    0.00    0.00     0.00    0.00    0.00    0.00
    7   13.75    0.00    0.90    0.38    0.03    0.00   87.10   22.36   62.66   15.15    0.00    0.00    0.00    0.00    0.00     0.00    0.00    0.00    0.00
    8   20.14    0.05    2.53    0.06    0.13    0.00   85.57   20.32   46.83   13.10    0.11    0.00    0.00    0.00    0.00     0.00    0.00    0.00    0.00
    9   21.62    0.16    3.39    0.08    0.18    0.00   86.36   18.39   37.39   11.20    0.31    0.00    0.00    0.00    0.00     0.00    0.00    0.00    0.00
   10   61.56    0.67   14.69    0.12    1.14    0.00  111.16   18.47   25.84   21.29    2.07    0.00    0.02    0.03    0.00     0.18    0.00    0.02    0.00
   11   65.65    1.55   24.80    0.27   13.23    0.00  120.54   13.44   17.25   31.15    4.81    0.00    0.14    0.43    0.00     0.60    0.00    0.07    0.00
   12   83.03    2.68   41.29    2.45   23.79    0.00  118.60    8.58   10.18   51.68    9.50    0.00    0.21    0.91    0.00     0.98    0.00    0.12    0.00

 1991  792.13   39.59  373.91   43.63  175.15    0.00  118.60  220.49  369.43  612.37  138.11    0.00    1.26    6.03    0.00    40.60    0.00    4.97    0.00
1
    SWAT Dec 23 2016    VER 2016/Rev 664                                            

    General Input/Output section (file.cio):                                        
    5/31/2025 12:00:00 AM ARCGIS-SWAT interface AV                                  
                                                                                    
Annual Summary for Watershed in year    4 of simulation

UNIT                                    PERCO    TILE                           WATER     SED     NO3     NO3     NO3     NO3        N       P       P
TIME     PREC    SURQ    LATQ     GWQ    LATE       Q     SW       ET     PET   YIELD   YIELD    SURQ    LATQ    PERC    CROP  ORGANIC SOLUBLE ORGANIC TILENO3
         (mm)    (mm)    (mm)    (mm)    (mm)    (mm)    (mm)    (mm)    (mm)    (mm)   (t/ha)  ------------------(kg nutrient/ha)-------------------- (kg/ha)
    1  112.23   10.25   65.90    5.38   31.58    0.00  119.03   10.68   12.93   89.45   38.83    0.00    0.23    1.10    0.00    13.19    0.00    1.61    0.00
    2  111.50    6.47   59.83    6.46   34.13    0.00  118.13   11.18   12.58   82.95   26.26    0.00    0.20    1.03    0.00     5.80    0.00    0.71    0.00
    3  101.62    5.43   41.88    7.59   17.79    0.00  119.60   31.96   36.80   68.76   20.22    0.00    0.09    0.47    0.00     3.90    0.00    0.48    0.00
    4   41.10    3.71   16.17    5.33    4.49    0.00  112.83   31.56   40.51   39.54    8.66    0.00    0.03    0.11    0.00     2.03    0.00    0.25    0.00
    5   14.15    0.01    1.46    2.75    0.07    0.00   94.74   32.85   77.33   17.12    0.02    0.00    0.00    0.00    0.00     0.00    0.00    0.00    0.00
    6   15.09    0.00    1.54    0.52    0.02    0.00   88.28   21.46   60.00   12.01    0.00    0.00    0.00    0.00    0.00     0.00    0.00    0.00    0.00
    7   14.01    0.00    1.34    0.08    0.02    0.00   83.34   18.98   59.68    9.29    0.00    0.00    0.00    0.00    0.00     0.00    0.00    0.00    0.00
    8   21.70    0.02    2.68    0.04    0.10    0.00   83.05   20.17   48.72    8.63    0.04    0.00    0.00    0.00    0.00     0.00    0.00    0.00    0.00
    9   21.73    0.17    3.05    0.07    0.18    0.00   83.49   19.38   41.26    7.53    0.27    0.00    0.00    0.00    0.00     0.00    0.00    0.00    0.00
   10   89.21    4.71   28.09    0.15    8.12    0.00  115.67   15.04   18.34   36.26   24.71    0.00    0.11    0.28    0.00     2.69    0.00    0.33    0.00
   11   62.10    4.03   22.21    0.83   13.02    0.00  120.68   12.58   14.62   30.32   15.30    0.00    0.12    0.51    0.00     1.59    0.00    0.19    0.00
   12   98.28    4.58   48.21    2.90   27.37    0.00  118.75    9.33   12.46   60.38   12.98    0.00    0.24    1.11    0.00     1.28    0.00    0.16    0.00

 1992  702.71   39.39  292.36   32.09  136.89    0.00  118.75  235.18  435.24  462.24  147.29    0.00    1.05    4.60    0.00    30.47    0.00    3.73    0.00
1
    SWAT Dec 23 2016    VER 2016/Rev 664                                            

    General Input/Output section (file.cio):                                        
    5/31/2025 12:00:00 AM ARCGIS-SWAT interface AV                                  
                                                                                    
Annual Summary for Watershed in year    5 of simulation

UNIT                                    PERCO    TILE                           WATER     SED     NO3     NO3     NO3     NO3        N       P       P
TIME     PREC    SURQ    LATQ     GWQ    LATE       Q     SW       ET     PET   YIELD   YIELD    SURQ    LATQ    PERC    CROP  ORGANIC SOLUBLE ORGANIC TILENO3
         (mm)    (mm)    (mm)    (mm)    (mm)    (mm)    (mm)    (mm)    (mm)    (mm)   (t/ha)  ------------------(kg nutrient/ha)-------------------- (kg/ha)
    1  286.39   49.76  123.50    5.68   68.56    0.00  118.76    1.83    3.34  187.19  167.30    0.00    0.42    2.29    0.00    32.74    0.00    4.01    0.00
    2  333.90   86.62  142.24    9.97   74.13    0.00  118.76    1.81    3.24  254.80  348.38    0.00    0.28    1.50    0.00     4.16    0.00    0.51    0.00
    3  194.38   24.10  115.93   14.35   58.42    0.00  119.41    4.36    8.08  181.23   71.18    0.00    0.16    0.82    0.00     0.15    0.00    0.02    0.00
    4  109.02   12.78   83.54   13.00   39.80    0.00  116.65   15.85   18.10  140.45   37.15    0.00    0.10    0.47    0.00     0.06    0.00    0.01    0.00
    5   33.69    1.39   23.95    9.60    8.60    0.00  110.87   27.50   36.95   67.86    4.99    0.00    0.02    0.08    0.00     0.00    0.00    0.00    0.00
    6   15.15    0.00    2.10    4.89    0.33    0.00   96.89   29.01   60.79   34.89    0.00    0.00    0.00    0.00    0.00     0.00    0.00    0.00    0.00
    7   15.02    0.00    1.10    1.76    0.03    0.00   87.96   24.46   65.95   25.91    0.00    0.00    0.00    0.00    0.00     0.00    0.00    0.00    0.00
    8   19.58    0.02    2.26    0.13    0.10    0.00   84.90   21.73   52.84   20.00    0.04    0.00    0.00    0.00    0.00     0.00    0.00    0.00    0.00
    9   34.85    0.11    6.41    0.06    0.15    0.00   93.71   20.01   36.77   19.37    0.16    0.00    0.00    0.00    0.00     0.00    0.00    0.00    0.00
   10  129.03    3.85   53.87    0.30   23.02    0.00  117.31   18.32   21.41   68.12   14.11    0.00    0.16    0.52    0.00     0.01    0.00    0.00    0.00
   11  212.05   13.53   92.39    3.47   49.75    0.00  118.76    6.84    8.97  120.40   51.73    0.00    0.23    1.08    0.00     0.06    0.00    0.01    0.00
   12  250.79   26.69  126.84    7.52   69.00    0.00  118.76    1.18    2.02  177.97   91.01    0.00    0.22    1.13    0.03     0.10    0.00    0.01    0.00

 1993 1633.85  218.86  774.12   70.74  391.89    0.00  118.76  172.90  318.45 1298.19  786.04    0.00    1.59    7.90    0.03    37.27    0.00    4.56    0.00
1
    SWAT Dec 23 2016    VER 2016/Rev 664                                            

    General Input/Output section (file.cio):                                        
    5/31/2025 12:00:00 AM ARCGIS-SWAT interface AV                                  
                                                                                    
Annual Summary for Watershed in year    6 of simulation

UNIT                                    PERCO    TILE                           WATER     SED     NO3     NO3     NO3     NO3        N       P       P
TIME     PREC    SURQ    LATQ     GWQ    LATE       Q     SW       ET     PET   YIELD   YIELD    SURQ    LATQ    PERC    CROP  ORGANIC SOLUBLE ORGANIC TILENO3
         (mm)    (mm)    (mm)    (mm)    (mm)    (mm)    (mm)    (mm)    (mm)    (mm)   (t/ha)  ------------------(kg nutrient/ha)-------------------- (kg/ha)
    1  311.27   52.16  149.13   11.11   80.54    0.00  118.76    2.38    4.39  236.95  176.83    0.00    0.18    0.91    0.00    27.07    0.00    3.31    0.00
    2  401.05   98.77  179.97   13.49   95.21    0.00  118.76    1.51    2.64  322.79  289.88    0.00    0.15    0.73    0.00     2.66    0.00    0.33    0.00
    3  181.50   20.62  122.85   17.66   61.89    0.00  118.50    6.55   12.20  203.31   71.72    0.00    0.09    0.40    0.00     0.07    0.00    0.01    0.00
    4  143.22   23.03  107.21   15.36   50.58    0.00  116.41   20.36   23.95  190.13   85.91    0.00    0.08    0.32    0.00     0.04    0.00    0.00    0.00
    5   30.52    4.36   28.20   11.49    9.48    0.00  101.30   37.59   64.11   89.70   15.57    0.00    0.02    0.05    0.00     0.00    0.00    0.00    0.00
    6   14.72    0.00    1.34    5.88    0.01    0.00   90.76   25.62   70.01   45.36    0.00    0.00    0.00    0.00    0.00     0.00    0.00    0.00    0.00
    7   11.37    0.00    0.52    2.11    0.03    0.00   82.64   20.68   69.43   33.86    0.00    0.00    0.00    0.00    0.00     0.00    0.00    0.00    0.00
    8   20.79    0.05    2.67    0.13    0.11    0.00   82.03   20.08   61.21   26.57    0.08    0.00    0.00    0.00    0.00     0.00    0.00    0.00    0.00
    9   46.09    3.28    8.66    0.08    0.19    0.00   93.81   22.82   44.59   29.22   21.88    0.00    0.00    0.00    0.00     0.01    0.00    0.00    0.00
   10   58.49    0.89   16.94    0.13    0.66    0.00  107.34   27.03   37.18   31.20    2.43    0.00    0.02    0.01    0.00     0.00    0.00    0.00    0.00
   11  113.58   11.50   46.74    0.86   21.72    0.00  120.10   10.17   13.73   69.36   45.49    0.00    0.14    0.45    0.00     0.04    0.00    0.00    0.00
   12  178.44   20.32   83.39    3.83   47.26    0.00  118.76    4.24    6.18  118.52   60.19    0.00    0.21    0.97    0.00     0.06    0.00    0.01    0.00

 1994 1511.03  234.98  747.62   82.11  367.68    0.00  118.76  199.05  409.62 1396.98  769.97    0.00    0.88    3.84    0.00    29.95    0.00    3.67    0.00
1
    SWAT Dec 23 2016    VER 2016/Rev 664                                            

    General Input/Output section (file.cio):                                        
    5/31/2025 12:00:00 AM ARCGIS-SWAT interface AV                                  
                                                                                    
Annual Summary for Watershed in year    7 of simulation

UNIT                                    PERCO    TILE                           WATER     SED     NO3     NO3     NO3     NO3        N       P       P
TIME     PREC    SURQ    LATQ     GWQ    LATE       Q     SW       ET     PET   YIELD   YIELD    SURQ    LATQ    PERC    CROP  ORGANIC SOLUBLE ORGANIC TILENO3
         (mm)    (mm)    (mm)    (mm)    (mm)    (mm)    (mm)    (mm)    (mm)    (mm)   (t/ha)  ------------------(kg nutrient/ha)-------------------- (kg/ha)
    1  219.94   42.42  116.15    7.48   57.91    0.00  118.53    8.90   11.31  181.39  138.08    0.00    0.20    0.95    0.00    25.75    0.00    3.15    0.00
    2  162.07   23.93   87.24    9.48   42.95    0.00  118.65   11.63   13.48  139.62  105.95    0.00    0.12    0.56    0.00     2.35    0.00    0.29    0.00
    3  211.31   24.65  114.51   11.78   57.77    0.00  117.22   19.45   21.82  176.82   69.25    0.00    0.13    0.64    0.00     0.72    0.00    0.09    0.00
    4   85.11    4.67   43.04   10.59   16.72    0.00  111.06   36.14   43.05   86.70   25.87    0.00    0.04    0.17    0.00     0.08    0.00    0.01    0.00
    5   16.70    0.01    1.59    6.67    0.07    0.00   95.70   32.21   68.58   35.61    0.01    0.00    0.00    0.00    0.00     0.00    0.00    0.00    0.00
    6    8.92    0.00    0.36    2.64    0.01    0.00   84.51   21.85   83.05   24.63    0.00    0.00    0.00    0.00    0.00     0.00    0.00    0.00    0.00
    7   10.18    0.00    0.73    0.31    0.04    0.00   75.85   20.45   90.65   18.34    0.00    0.00    0.00    0.00    0.00     0.00    0.00    0.00    0.00
    8   11.90    0.08    1.43    0.05    0.13    0.00   71.02   17.40   74.83   14.56    0.16    0.00    0.00    0.00    0.00     0.00    0.00    0.00    0.00
    9   34.11    1.10    6.70    0.08    0.19    0.00   80.94   17.28   46.25   17.26    4.82    0.00    0.01    0.00    0.00     0.01    0.00    0.00    0.00
   10   65.58    2.57   16.88    0.13    0.28    0.00  105.79   20.29   32.52   26.77   11.20    0.00    0.01    0.00    0.00     0.03    0.00    0.00    0.00
   11  159.71   18.85   73.59    0.66   33.36    0.00  117.39    9.68   12.62   99.09   51.86    0.00    0.23    0.85    0.00     0.24    0.00    0.03    0.00
   12  172.50   25.92   62.82    3.27   34.05    0.00  118.76    7.91   11.17  100.25  103.34    0.00    0.16    0.81    0.00     0.24    0.00    0.03    0.00

 1995 1158.02  144.20  525.04   53.14  243.48    0.00  118.76  223.18  509.33  921.06  510.55    0.00    0.91    3.98    0.00    29.43    0.00    3.60    0.00
1
    SWAT Dec 23 2016    VER 2016/Rev 664                                            

    General Input/Output section (file.cio):                                        
    5/31/2025 12:00:00 AM ARCGIS-SWAT interface AV                                  
                                                                                    
Annual Summary for Watershed in year    8 of simulation

UNIT                                    PERCO    TILE                           WATER     SED     NO3     NO3     NO3     NO3        N       P       P
TIME     PREC    SURQ    LATQ     GWQ    LATE       Q     SW       ET     PET   YIELD   YIELD    SURQ    LATQ    PERC    CROP  ORGANIC SOLUBLE ORGANIC TILENO3
         (mm)    (mm)    (mm)    (mm)    (mm)    (mm)    (mm)    (mm)    (mm)    (mm)   (t/ha)  ------------------(kg nutrient/ha)-------------------- (kg/ha)
    1  274.68   33.70  138.02    7.37   73.38    0.00  118.76    2.87    5.42  192.94  103.70    0.00    0.25    1.30    0.00    21.84    0.00    2.67    0.00
    2  324.81   79.71  151.59   10.98   81.25    0.00  118.76    2.27    4.08  263.16  256.05    0.00    0.18    0.96    0.00     7.30    0.00    0.89    0.00
    3  199.50   38.70  127.18   15.20   63.85    0.00  118.10    7.82   11.46  212.58  161.31    0.00    0.12    0.56    0.00     0.20    0.00    0.02    0.00
    4  104.01   13.48   66.58   13.46   27.63    0.00  111.78   31.25   38.96  128.96   50.72    0.00    0.05    0.22    0.00     0.03    0.00    0.00    0.00
    5   18.71    0.01    7.05    8.81    1.87    0.00   98.90   29.69   62.81   51.03    0.02    0.00    0.00    0.01    0.00     0.00    0.00    0.00    0.00
    6    5.74    0.00    0.13    4.02    0.01    0.00   84.45   22.37   90.89   32.50    0.00    0.00    0.00    0.00    0.00     0.00    0.00    0.00    0.00
    7    5.47    0.00    0.36    0.53    0.02    0.00   74.92   17.18   99.72   23.75    0.00    0.00    0.00    0.00    0.00     0.00    0.00    0.00    0.00
    8   18.83    0.05    2.28    0.05    0.12    0.00   74.00   18.99   60.43   19.62    0.07    0.00    0.00    0.00    0.00     0.00    0.00    0.00    0.00
    9   21.18    0.00    2.97    0.05    0.02    0.00   76.35   16.69   40.71   15.49    0.00    0.00    0.00    0.00    0.00     0.00    0.00    0.00    0.00
   10   61.32    0.55   14.95    0.05    0.11    0.00  101.73   19.06   34.90   25.12    1.73    0.00    0.01    0.00    0.00     0.00    0.00    0.00    0.00
   11   68.70    1.65   20.19    0.05    6.82    0.00  118.01   18.09   21.29   28.78    6.27    0.00    0.07    0.16    0.00     0.01    0.00    0.00    0.00
   12  148.85   12.90   71.31    1.98   38.15    0.00  118.75    6.37   11.13   93.17   49.93    0.00    0.23    0.92    0.00     0.04    0.00    0.01    0.00

 1996 1251.80  180.74  602.63   62.57  293.22    0.00  118.75  192.66  481.79 1087.09  629.81    0.00    0.93    4.14    0.00    29.42    0.00    3.60    0.00
1
    SWAT Dec 23 2016    VER 2016/Rev 664                                            

    General Input/Output section (file.cio):                                        
    5/31/2025 12:00:00 AM ARCGIS-SWAT interface AV                                  
                                                                                    
Annual Summary for Watershed in year    9 of simulation

UNIT                                    PERCO    TILE                           WATER     SED     NO3     NO3     NO3     NO3        N       P       P
TIME     PREC    SURQ    LATQ     GWQ    LATE       Q     SW       ET     PET   YIELD   YIELD    SURQ    LATQ    PERC    CROP  ORGANIC SOLUBLE ORGANIC TILENO3
         (mm)    (mm)    (mm)    (mm)    (mm)    (mm)    (mm)    (mm)    (mm)    (mm)   (t/ha)  ------------------(kg nutrient/ha)-------------------- (kg/ha)
    1  237.15   37.25  114.59    5.94   60.85    0.00  118.76    4.99    7.06  168.74  156.38    0.00    0.24    1.20    0.00    25.39    0.00    3.11    0.00
    2  316.47   69.19  146.50    9.01   78.25    0.00  118.76    2.66    4.93  241.10  233.79    0.00    0.20    1.07    0.00     3.51    0.00    0.43    0.00
    3   52.50    5.50   54.32   12.96   22.94    0.00  112.69   16.55   24.44   99.01   22.76    0.00    0.06    0.25    0.00     0.04    0.00    0.00    0.00
    4   54.80   10.69   20.04    8.82    6.44    0.00  114.12   25.17   37.16   66.02   51.56    0.00    0.02    0.07    0.00     0.06    0.00    0.01    0.00
    5   15.09    0.00    3.36    4.72    1.15    0.00   96.09   31.39   72.24   32.07    0.00    0.00    0.00    0.01    0.00     0.00    0.00    0.00    0.00
    6    6.90    0.00    0.24    1.38    0.00    0.00   84.29   20.39   82.49   20.30    0.00    0.00    0.00    0.00    0.00     0.00    0.00    0.00    0.00
    7    7.37    0.00    0.23    0.02    0.00    0.00   76.25   17.26   92.88   15.08    0.00    0.00    0.00    0.00    0.00     0.00    0.00    0.00    0.00
    8   27.92    0.00    3.84    0.00    0.01    0.00   81.53   19.15   40.28   14.94    0.00    0.00    0.00    0.00    0.00     0.00    0.00    0.00    0.00
    9   42.04    2.19    8.93    0.00    0.01    0.00   95.05   17.56   55.05   19.12   13.69    0.00    0.00    0.00    0.00     0.01    0.00    0.00    0.00
   10   71.55    5.53   15.84    0.01    0.32    0.00  110.06   28.98   43.90   27.42   23.22    0.00    0.02    0.01    0.00     0.02    0.00    0.00    0.00
   11  159.25   29.00   68.76    0.71   33.90    0.00  119.72   12.44   16.50  103.85  106.98    0.00    0.24    0.90    0.00     0.10    0.00    0.01    0.00
   12  254.48   58.49  113.91    5.06   58.44    0.00  118.76    5.32    6.42  186.25  246.19    0.00    0.28    1.32    0.00     0.19    0.00    0.02    0.00

 1997 1245.52  217.84  550.56   48.62  262.31    0.00  118.76  201.87  483.35  993.89  854.56    0.00    1.06    4.82    0.00    29.33    0.00    3.59    0.00
1
    SWAT Dec 23 2016    VER 2016/Rev 664                                            

    General Input/Output section (file.cio):                                        
    5/31/2025 12:00:00 AM ARCGIS-SWAT interface AV                                  
                                                                                    
Annual Summary for Watershed in year   10 of simulation

UNIT                                    PERCO    TILE                           WATER     SED     NO3     NO3     NO3     NO3        N       P       P
TIME     PREC    SURQ    LATQ     GWQ    LATE       Q     SW       ET     PET   YIELD   YIELD    SURQ    LATQ    PERC    CROP  ORGANIC SOLUBLE ORGANIC TILENO3
         (mm)    (mm)    (mm)    (mm)    (mm)    (mm)    (mm)    (mm)    (mm)    (mm)   (t/ha)  ------------------(kg nutrient/ha)-------------------- (kg/ha)
    1  329.07   86.36  157.86    9.89   82.75    0.00  118.37    6.28    8.03  270.41  338.35    0.00    0.24    1.26    0.00    28.40    0.00    3.47    0.00
    2  310.58   86.13  138.34   12.54   71.49    0.00  118.33   12.83   14.52  260.25  388.59    0.00    0.14    0.73    0.00     0.55    0.00    0.07    0.00
    3  201.06   27.18  101.41   14.38   47.96    0.00  118.56   26.44   30.82  176.54   96.28    0.00    0.09    0.40    0.00     0.07    0.00    0.01    0.00
    4   84.38   11.72   30.76   11.51   12.38    0.00  115.19   32.76   41.18   89.14   50.75    0.00    0.02    0.10    0.00     0.02    0.00    0.00    0.00
    5    7.08    0.00    1.77    6.75    0.00    0.00   91.10   33.20   95.23   41.06    0.00    0.00    0.00    0.00    0.00     0.00    0.00    0.00    0.00
    6    8.02    0.00    0.62    2.33    0.00    0.00   80.46   20.16   91.09   28.24    0.00    0.00    0.00    0.00    0.00     0.00    0.00    0.00    0.00
    7    5.90    0.00    0.37    0.16    0.00    0.00   72.15   15.95   95.21   20.60    0.00    0.00    0.00    0.00    0.00     0.00    0.00    0.00    0.00
    8   14.91    0.00    1.60    0.01    0.01    0.00   68.87   18.27   72.77   16.63    0.00    0.00    0.01    0.00    0.00     0.00    0.00    0.00    0.00
    9   32.80    1.12    5.69    0.00    0.02    0.00   78.86   16.11   56.06   17.63    6.54    0.01    0.01    0.00    0.00     0.00    0.00    0.00    0.00
   10   82.36    5.34   24.63    0.00    0.47    0.00  104.78   26.02   36.46   38.27   28.24    0.00    0.03    0.01    0.00     0.01    0.00    0.00    0.00
   11   82.77    6.01   31.70    0.02   10.91    0.00  118.50   13.87   19.13   42.11   20.37    0.00    0.08    0.27    0.00     0.01    0.00    0.00    0.00

 1998 1158.93  223.88  494.76   57.59  225.98    0.00  118.50  221.90  560.50 1000.88  929.12    0.01    0.62    2.78    0.00    29.08    0.00    3.56    0.00
1
    SWAT Dec 23 2016    VER 2016/Rev 664                                            

    General Input/Output section (file.cio):                                        
    5/31/2025 12:00:00 AM ARCGIS-SWAT interface AV                                  
                                                                                    
    FINAL VALUES

1
    SWAT Dec 23 2016    VER 2016/Rev 664                                            

    General Input/Output section (file.cio):                                        
    5/31/2025 12:00:00 AM ARCGIS-SWAT interface AV                                  
                                                                                    
                                            Average Plant Values (kg/ha)

  HRU       1 SUB   1 PJNL  Yld =     0.0 BIOM =      2.3
  HRU       2 SUB   1 PJNL  Yld =     0.0 BIOM =      2.3
  HRU       3 SUB   1 BARR  Yld =     0.0 BIOM =      0.0
  HRU       4 SUB   1 BARR  Yld =     0.0 BIOM =      0.0
  HRU       5 SUB   1 WETN  Yld =     0.0 BIOM =      0.0
  HRU       6 SUB   1 WATR  Yld =     0.0 BIOM =      0.0
  HRU       7 SUB   1 ES9   Yld =     0.0 BIOM =      0.0
  HRU       8 SUB   1 ES9   Yld =     0.0 BIOM =      0.0
  HRU       9 SUB   1 ES10  Yld =     0.0 BIOM =      0.0
  HRU      10 SUB   1 ES11  Yld =     0.0 BIOM =      0.0
  HRU      11 SUB   1 ES12  Yld =     0.0 BIOM =      0.0
  HRU      12 SUB   1 ES13  Yld =     0.0 BIOM =      0.0
  HRU      13 SUB   2 BARR  Yld =     0.0 BIOM =      0.0
  HRU      14 SUB   2 BARR  Yld =     0.0 BIOM =      0.0
  HRU      15 SUB   2 WATR  Yld =     0.0 BIOM =      0.0
  HRU      16 SUB   2 PJNL  Yld =     0.0 BIOM =      0.0
  HRU      17 SUB   2 PJNL  Yld =     0.0 BIOM =      0.0
  HRU      18 SUB   2 ES10  Yld =     0.0 BIOM =      0.0
  HRU      19 SUB   2 ES11  Yld =     0.0 BIOM =      0.0
  HRU      20 SUB   2 ES13  Yld =     0.0 BIOM =      0.0
  HRU      21 SUB   2 ES13  Yld =     0.0 BIOM =      0.0
  HRU      22 SUB   2 ES12  Yld =     0.0 BIOM =      0.0
  HRU      23 SUB   2 ES12  Yld =     0.0 BIOM =      0.0
  HRU      24 SUB   2 ES8   Yld =     0.0 BIOM =      0.0
  HRU      25 SUB   2 ES8   Yld =     0.0 BIOM =      0.0
  HRU      26 SUB   2 ES9   Yld =     0.0 BIOM =      0.0
  HRU      27 SUB   2 ES14  Yld =     0.0 BIOM =      0.0
  HRU      28 SUB   2 ES15  Yld =     0.0 BIOM =      0.0
  HRU      29 SUB   2 ES16  Yld =     0.0 BIOM =      0.0
  HRU      30 SUB   3 ES11  Yld =     0.0 BIOM =      0.0
  HRU      31 SUB   3 ES12  Yld =     0.0 BIOM =      0.0
  HRU      32 SUB   3 ES10  Yld =     0.0 BIOM =      0.0
  HRU      33 SUB   3 BARR  Yld =     0.0 BIOM =      0.0
  HRU      34 SUB   3 BARR  Yld =     0.0 BIOM =      0.0
  HRU      35 SUB   3 ES9   Yld =     0.0 BIOM =      0.0
  HRU      36 SUB   3 ES9   Yld =     0.0 BIOM =      0.0
  HRU      37 SUB   3 ES8   Yld =     0.0 BIOM =      0.0
  HRU      38 SUB   3 PJNL  Yld =     0.0 BIOM =      0.0
  HRU      39 SUB   3 PJNL  Yld =     0.0 BIOM =      0.0
  HRU      40 SUB   3 ES13  Yld =     0.0 BIOM =      0.0
  HRU      41 SUB   3 ES14  Yld =     0.0 BIOM =      0.0
  HRU      42 SUB   3 WATR  Yld =     0.0 BIOM =      0.0
  HRU      43 SUB   3 ES7   Yld =     0.0 BIOM =      0.0
  HRU      44 SUB   3 ES7   Yld =     0.0 BIOM =      0.0
  HRU      45 SUB   3 ES6   Yld =     0.0 BIOM =      0.0
  HRU      46 SUB   3 ES6   Yld =     0.0 BIOM =      0.0
  HRU      47 SUB   3 ES5   Yld =     0.0 BIOM =      0.0
  HRU      48 SUB   3 ES5   Yld =     0.0 BIOM =      0.0
  HRU      49 SUB   3 ES4   Yld =     0.0 BIOM =      0.0

    HRU STATISTICS

                AVE ANNUAL VALUES

   HRU  SUB  SOIL       AREAkm2    CN     AWCmm   USLE_LS  IRRmm  AUTONkh AUTOPkh  MIXEF PRECmm SURQGENmm   GWQmm    ETmm   SEDth  NO3kgh  ORGNkgh BIOMth   YLDth  SURQmm
      1   1   I-Bh-Tv-   .113E+01   81.58  120.00    5.68    0.00    0.00    0.00    0.21 1026.66  147.00  400.71  213.90  361.70    1.23   46.00    0.00    0.00  147.01
      2   1   I-Bh-Tv-   .255E-01   81.58  120.00    0.07    0.00    0.00    0.00    0.21 1026.66  148.32    0.01  219.44    0.65    0.00    7.74    0.00    0.00  148.20
      3   1   I-Bh-Tv-   .108E+01   81.58  120.00   10.17    0.00    0.00    0.00    0.21 1026.66  147.00  483.18  207.76  651.37    1.56   47.24    0.00    0.00  147.00
      4   1   I-Bh-Tv-   .563E-02   81.58  120.00    0.07    0.00    0.00    0.00    0.21 1026.66  148.65    0.01  215.89    0.56    0.00    6.82    0.00    0.00  148.54
      5   1   I-Bh-Tv-   .146E+00   81.58  120.00    0.07    0.00    0.00    0.00    0.21 1026.66  148.57    0.01  216.60    1.20    0.00   12.55    0.00    0.00  148.54
      6   1   I-Bh-Tv-   .570E-01   81.58  120.00    0.07    0.00    0.00    0.00    0.21 1026.66    0.00    0.00  670.16    0.00    0.00    0.00    0.00    0.00    0.00
      7   1   I-Bh-Tv-   .844E-02   81.58  120.00   10.94    0.00    0.00    0.00    0.21 1026.66  147.57  483.72  231.68  413.97    1.60   46.25    0.00    0.00  147.57
      8   1   I-Bh-Tv-   .156E-03   81.58  120.00    0.07    0.00    0.00    0.00    0.21 1026.66  149.30    0.01  240.28    0.32    0.00    4.12    0.00    0.00  149.19
      9   1   I-Bh-Tv-   .922E-02   81.58  120.00   18.79    0.00    0.00    0.00    0.21 1026.66  146.77  563.76  225.27  692.34    1.98   47.27    0.00    0.00  146.77
     10   1   I-Bh-Tv-   .594E-02   81.58  120.00   13.09    0.00    0.00    0.00    0.21 1026.66  147.48  511.11  227.97  459.25    1.72   46.48    0.00    0.00  147.48
     11   1   I-Bh-Tv-   .234E-02   81.58  120.00   10.89    0.00    0.00    0.00    0.21 1026.66  147.74  484.87  229.02  342.04    1.60   45.79    0.00    0.00  147.74
     12   1   I-Bh-Tv-   .969E-02   81.58  120.00   10.73    0.00    0.00    0.00    0.21 1026.66  147.76  482.77  229.10  399.53    1.59   46.18    0.00    0.00  147.76
     13   2   I-Bh-Tv-   .971E+00   81.58  120.00   11.13    0.00    0.00    0.00    0.21 1207.44  129.77  646.89  177.13  637.06    1.63   47.55    0.00    0.00  129.77
     14   2   I-Bh-Tv-   .531E-02   81.58  120.00    0.07    0.00    0.00    0.00    0.21 1207.44  130.55    0.02  186.52    0.49    0.00    6.08    0.00    0.00  130.41
     15   2   I-Bh-Tv-   .273E-01   81.58  120.00    0.07    0.00    0.00    0.00    0.21 1207.44    0.00    0.00  624.50    0.00    0.00    0.00    0.00    0.00    0.00
     16   2   I-Bh-Tv-   .728E-01   81.58  120.00    7.41    0.00    0.00    0.00    0.21 1207.44  129.96  570.04  178.95  315.52    1.39   45.97    0.00    0.00  129.96
     17   2   I-Bh-Tv-   .469E-03   81.58  120.00    0.07    0.00    0.00    0.00    0.21 1207.44  130.54    0.02  186.55    0.34    0.00    4.40    0.00    0.00  130.40
     18   2   I-Bh-Tv-   .263E-01   81.58  120.00   11.29    0.00    0.00    0.00    0.21 1207.44  133.52  634.63  224.39  401.87    1.64   46.57    0.00    0.00  133.52
     19   2   I-Bh-Tv-   .427E-01   81.58  120.00   13.62    0.00    0.00    0.00    0.21 1207.44  133.39  670.25  223.26  513.46    1.76   47.10    0.00    0.00  133.39
     20   2   I-Bh-Tv-   .106E+00   81.58  120.00   13.28    0.00    0.00    0.00    0.21 1207.44  133.40  663.48  222.13  545.76    1.75   47.33    0.00    0.00  133.40
     21   2   I-Bh-Tv-   .469E-03   81.58  120.00    0.07    0.00    0.00    0.00    0.21 1207.44  134.39    0.02  232.94    0.36    0.00    4.64    0.00    0.00  134.24
     22   2   I-Bh-Tv-   .119E+00   81.58  120.00   10.08    0.00    0.00    0.00    0.21 1207.44  133.59  611.70  223.83  429.48    1.57   46.72    0.00    0.00  133.59
     23   2   I-Bh-Tv-   .781E-03   81.58  120.00    0.07    0.00    0.00    0.00    0.21 1207.44  134.39    0.02  233.10    0.39    0.00    4.99    0.00    0.00  134.24
     24   2   I-Bh-Tv-   .205E-01   81.58  120.00    5.63    0.00    0.00    0.00    0.21 1207.44  133.84  507.67  227.49  194.51    1.24   44.60    0.00    0.00  133.84
     25   2   I-Bh-Tv-   .313E-03   81.58  120.00    0.07    0.00    0.00    0.00    0.21 1207.44  134.39    0.02  234.36    0.33    0.00    4.28    0.00    0.00  134.25
     26   2   I-Bh-Tv-   .122E-01   81.58  120.00   17.62    0.00    0.00    0.00    0.21 1207.44  133.12  720.40  221.37  571.57    1.95   47.28    0.00    0.00  133.12
     27   2   I-Bh-Tv-   .461E-01   81.58  120.00   11.93    0.00    0.00    0.00    0.21 1207.44  133.48  643.17  222.78  444.17    1.67   46.92    0.00    0.00  133.48
     28   2   I-Bh-Tv-   .208E-01   81.58  120.00    6.75    0.00    0.00    0.00    0.21 1207.44  133.77  538.36  225.46  228.66    1.34   45.26    0.00    0.00  133.77
     29   2   I-Bh-Tv-   .109E-02   81.58  120.00    4.19    0.00    0.00    0.00    0.21 1207.44  267.64  870.24  369.33  191.17    1.14   47.53    0.00    0.00  267.64
     30   3   I-Bh-Tv-   .816E-01   81.58  120.00   16.18    0.00    0.00    0.00    0.21 1175.77  154.57  851.70  230.35  737.15    1.88   49.16    0.00    0.00  154.57
     31   3   I-Bh-Tv-   .603E-01   81.58  120.00   15.31    0.00    0.00    0.00    0.21 1175.77  154.65  850.58  230.79  673.25    1.84   49.12    0.00    0.00  154.65
     32   3   I-Bh-Tv-   .989E-01   81.58  120.00   14.52    0.00    0.00    0.00    0.21 1175.77  154.71  849.54  231.18  677.30    1.80   49.13    0.00    0.00  154.71
     33   3   I-Bh-Tv-   .451E+00   81.58  120.00   14.39    0.00    0.00    0.00    0.21 1175.77  137.35  811.45  197.12  730.35    1.79   47.96    0.00    0.00  137.35
     34   3   I-Bh-Tv-   .156E-02   81.58  120.00    0.07    0.00    0.00    0.00    0.21 1175.77  138.58  760.55  207.77    0.43    0.00    5.43    0.00    0.00  138.44
     35   3   I-Bh-Tv-   .142E+00   81.58  120.00   10.22    0.00    0.00    0.00    0.21 1175.77  155.69  851.34  234.93  538.84    1.57   48.95    0.00    0.00  155.69
     36   3   I-Bh-Tv-   .469E-03   81.58  120.00    0.07    0.00    0.00    0.00    0.21 1175.77  156.82  805.28  243.33    0.44    0.00    5.53    0.00    0.00  156.68
     37   3   I-Bh-Tv-   .161E+00   81.58  120.00    7.60    0.00    0.00    0.00    0.21 1175.77  156.42  848.74  236.36  408.36    1.39   48.76    0.00    0.00  156.42
     38   3   I-Bh-Tv-   .155E-01   81.58  120.00   13.64    0.00    0.00    0.00    0.21 1175.77  129.21  750.41  255.72  434.21    1.72   46.63    0.00    0.00  129.21
     39   3   I-Bh-Tv-   .156E-03   81.58  120.00    0.07    0.00    0.00    0.00    0.21 1175.77  134.67  695.35  267.05    0.26    0.00    3.37    0.00    0.00  134.53
     40   3   I-Bh-Tv-   .402E-01   81.58  120.00   16.88    0.00    0.00    0.00    0.21 1175.77  154.51  852.58  229.99  707.10    1.91   49.14    0.00    0.00  154.51
     41   3   I-Bh-Tv-   .891E-02   81.58  120.00    8.09    0.00    0.00    0.00    0.21 1175.77  775.46 2297.52  348.96 1299.28    1.46   49.33    0.00    0.00  775.46
     42   3   I-Bh-Tv-   .370E-01   81.58  120.00    0.07    0.00    0.00    0.00    0.21 1175.77    0.00    0.00  632.57    0.00    0.00    0.00    0.00    0.00    0.00
     43   3   I-Bh-Tv-   .105E+00   81.58  120.00    9.58    0.00    0.00    0.00    0.21 1175.77  156.27  852.38  235.37  489.74    1.53   48.89    0.00    0.00  156.27
     44   3   I-Bh-Tv-   .625E-03   81.58  120.00    0.07    0.00    0.00    0.00    0.21 1175.77  157.36  807.35  243.42    0.46    0.00    5.78    0.00    0.00  157.22
     45   3   I-Bh-Tv-   .111E+00   81.58  120.00    7.31    0.00    0.00    0.00    0.21 1175.77  156.48  848.38  236.10  376.54    1.37   48.69    0.00    0.00  156.48
     46   3   I-Bh-Tv-   .625E-03   81.58  120.00    0.07    0.00    0.00    0.00    0.21 1175.77  157.38  807.48  243.08    0.46    0.00    5.78    0.00    0.00  157.23
     47   3   I-Bh-Tv-   .556E-01   81.58  120.00    4.61    0.00    0.00    0.00    0.21 1175.77  156.68  841.84  237.59  218.96    1.13   48.04    0.00    0.00  156.68
     48   3   I-Bh-Tv-   .359E-02   81.58  120.00    0.07    0.00    0.00    0.00    0.21 1175.77  157.38  807.48  243.08    0.58    0.00    7.10    0.00    0.00  157.23
     49   3   I-Bh-Tv-   .172E-02   81.58  120.00    4.52    0.00    0.00    0.00    0.21 1175.77  156.69  841.58  237.65  141.64    1.13   47.13    0.00    0.00  156.69



                AVE MONTHLY BASIN VALUES
                   SNOW                      WATER               SED
  MON     RAIN     FALL   SURF Q    LAT Q    YIELD       ET    YIELD      PET
          (MM)     (MM)     (MM)     (MM)     (MM)     (MM)   (T/HA)     (MM)
    1   224.81    27.41    35.89   113.18   169.37     5.41   127.57     7.35
    2   240.51    39.17    51.96   113.41   192.63     7.46   190.41     9.22
    3   157.39    27.57    17.06    88.43   141.14    16.28    58.77    20.86
    4    82.26     8.66     9.34    49.35    93.37    27.36    36.60    33.75
    5    21.31     3.54     0.61     9.37    41.30    32.80     2.15    63.74
    6    13.36     5.22     0.00     1.63    24.70    24.54     0.00    69.33
    7    11.17     4.83     0.00     1.14    18.27    21.08     0.01    75.59
    8    19.82     5.58     0.14     4.17    16.94    20.47     0.41    55.34
    9    31.09     4.53     1.85     8.85    20.19    19.05     7.60    42.62
   10    76.86    13.57     2.59    23.92    34.34    21.21    11.33    29.79
   11   118.11    23.68    10.27    49.52    67.34    12.55    36.23    15.67
   12   153.96    23.28    18.08    71.95   102.49     6.56    68.08     9.24

     AVE ANNUAL BASIN STRESS DAYS
               WATER STRESS DAYS =     3.48
               TEMPERATURE STRESS DAYS =    53.88
               NITROGEN STRESS DAYS =     0.00
               PHOSPHORUS STRESS DAYS =     0.00
               AERATION STRESS DAYS =     0.00
1
    SWAT Dec 23 2016    VER 2016/Rev 664                                            

    General Input/Output section (file.cio):                                        
    5/31/2025 12:00:00 AM ARCGIS-SWAT interface AV                                  
                                                                                    
         AVE ANNUAL BASIN VALUES

              PRECIP =   1115.1 MM
              SNOW FALL =  182.18 MM
              SNOW MELT =   153.84 MM
              SUBLIMATION =    10.06 MM
              SURFACE RUNOFF Q =   140.94 MM
              LATERAL SOIL Q =  516.98 MM
              TILE Q =     0.00 MM
              GROUNDWATER (SHAL AQ) Q =    54.18 MM
              GROUNDWATER (DEEP AQ) Q =   185.13 MM
              REVAP (SHAL AQ => SOIL/PLANTS) =   15.62 MM
              DEEP AQ RECHARGE =   187.15 MM
              TOTAL AQ RECHARGE =  244.06 MM
              TOTAL WATER YLD =   897.22 MM
              PERCOLATION OUT OF SOIL =  245.08 MM
              ET =    218.5 MM
              PET =    442.0MM
              TRANSMISSION LOSSES =     0.00 MM
              SEPTIC INFLOW =       0.00 MM
              TOTAL SEDIMENT LOADING =    514.29 T/HA
              TILE FROM IMPOUNDED WATER =     0.000 (MM)
              EVAPORATION FROM IMPOUNDED WATER =     0.000 (MM)
              SEEPAGE INTO SOIL FROM IMPOUNDED WATER =    0.000 (MM)
              OVERFLOW FROM IMPOUNDED WATER =    0.000 (MM)
1
    SWAT Dec 23 2016    VER 2016/Rev 664                                            

    General Input/Output section (file.cio):                                        
    5/31/2025 12:00:00 AM ARCGIS-SWAT interface AV                                  
                                                                                    
              AVE ANNUAL BASIN VALUES


              NUTRIENTS
                   ORGANIC N =    44.933 (KG/HA)
                   ORGANIC P =     5.500 (KG/HA)
                   NO3 YIELD (SQ) =     0.003 (KG/HA)
                   NO3 YIELD (LAT) =    1.432 (KG/HA)
                   NO3 YIELD (TILE) =    0.000 (KG/HA)
                   SOLP YIELD (TILE) =    0.000(KG/HA)
                   SOLP YIELD (SURF INLET RISER) =    0.000 (KG/HA)
                   SOL P YIELD =    0.003 (KG/HA)
                   NO3 LEACHED =     6.297 (KG/HA)
                   P LEACHED =     0.103 (KG/HA)
                   N UPTAKE =     0.003 (KG/HA)
                   P UPTAKE =    0.000 (KG/HA)
                   NO3 YIELD (GWQ) =     0.011 (KG/HA)
                   ACTIVE TO SOLUTION P FLOW =         1.884 (KG/HA)
                   ACTIVE TO STABLE P FLOW =         4.131 (KG/HA)
                   N FERTILIZER APPLIED =     0.000 (KG/HA)
                   P FERTILIZER APPLIED =     0.000 (KG/HA)
                   N FIXATION =     0.000 (KG/HA)
                   DENITRIFICATION =     0.000 (KG/HA)
                   HUMUS MIN ON ACTIVE ORG N =     7.689 (KG/HA)
                   ACTIVE TO STABLE ORG N =    -4.073 (KG/HA)
                   HUMUS MIN ON ACTIVE ORG P =    1.317 (KG/HA)
                   MIN FROM FRESH ORG N =    0.001 (KG/HA)
                   MIN FROM FRESH ORG P =    0.000 (KG/HA)
                   NO3 IN RAINFALL =     0.000 (KG/HA)
                   INITIAL NO3 IN SOIL =      35.560 (KG/HA)
                   FINAL NO3 IN SOIL =         6.050 (KG/HA)
                   INITIAL ORG N IN SOIL =   12600.001 (KG/HA)
                   FINAL ORG N IN SOIL =     12089.488 (KG/HA)
                   INITIAL MIN P IN SOIL =    1789.938 (KG/HA)
                   FINAL MIN P IN SOIL =      1757.500 (KG/HA)
                   INITIAL ORG P IN SOIL =    1543.500 (KG/HA)
                   FINAL ORG P IN SOIL =    1477.365 (KG/HA)
                   NO3 IN FERT =     0.000 (KG/HA)
                   AMMONIA IN FERT =     0.000 (KG/HA)
                   ORG N IN FERT =     0.000 (KG/HA)
                   MINERAL P IN FERT =     0.000 (KG/HA)
                   ORG P IN FERT =     0.000 (KG/HA)
                   N REMOVED IN YIELD =     0.000 (KG/HA)
                   P REMOVED IN YIELD =     0.000 (KG/HA)
                   AMMONIA VOLATILIZATION =     0.000 (KG/HA)
                   AMMONIA NITRIFICATION =      0.000 (KG/HA)
                   NO3 EVAP-LAYER 2 TO 1 =    0.653

                   DIE-GRO P Q =           0.0 (No/M2)
                   DIE-GRO LP Q =           0.0 (No/M2)
                   DIE-GRO P SED =          0.0 (No/M2)
                   DIE-GRO LP SED =          0.0 (No/M2)
                   BACT P RUNOFF =          0.0 (No/M2)
                   BACT LP RUNOFF =          0.0 (No/M2)
                   BACT P SEDIMENT =          0.0 (No/M2)
                   BACT LP SEDIMENT =          0.0 (No/M2)
                   BACT P INCORP =          0.0 (No/M2)
                   BACT LP INCORP =          0.0 (No/M2)

                   NITRATE SEPTIC =         0.00 (kg/ha)
                   AMMONIA SEPTIC =         0.00 (kg/ha)
                   ORG N SEPTIC =         0.00 (kg/ha)
                   FRESH ORGN SEPTIC =         0.00 (kg/ha)
                   ORG P SEPTIC =         0.00 (kg/ha)
                   FRESH ORGP SEPTIC =         0.00 (kg/ha)
                   SOL P SEPTIC =         0.00 (kg/ha)
                   BOD SEPTIC =         0.00 (kg/ha)
