1
    SWAT Dec 23 2016    VER 2016/Rev 664                                                                 0/ 0/   0      0: 0: 0

    General Input/Output section (file.cio):                                        
    5/31/2025 12:00:00 AM ARCGIS-SWAT interface AV                                  
                                                                                    
         Number of years in run:   10
         Area of watershed:        5.330 km2
1
    SWAT Dec 23 2016    VER 2016/Rev 664                                            

    General Input/Output section (file.cio):                                        
    5/31/2025 12:00:00 AM ARCGIS-SWAT interface AV                                  
                                                                                    
Annual Summary for Watershed in year    1 of simulation

UNIT                                    PERCO    TILE                           WATER     SED     NO3     NO3     NO3     NO3        N       P       P
TIME     PREC    SURQ    LATQ     GWQ    LATE       Q     SW       ET     PET   YIELD   YIELD    SURQ    LATQ    PERC    CROP  ORGANIC SOLUBLE ORGANIC TILENO3
         (mm)    (mm)    (mm)    (mm)    (mm)    (mm)    (mm)    (mm)    (mm)    (mm)   (t/ha)  ------------------(kg nutrient/ha)-------------------- (kg/ha)
    3  151.47   11.41    1.97    0.20   31.58    0.00  137.32    5.78    9.06   13.65   30.26    0.00    0.05    4.42    0.00    70.93    0.00    8.69    0.00
    4   68.38    6.19    9.34    7.04   68.85    0.00  122.31   28.23   31.64   28.10   25.10    0.00    0.24    7.58    0.00    32.87    0.00    4.03    0.00
    5   18.66    0.00    6.05   12.58    7.56    0.00  108.15   37.04   51.77   30.66    0.00    0.00    0.14    0.54    0.00     0.00    0.00    0.00    0.00
    6   14.58    0.00    2.42    8.81    0.65    0.00  100.29   29.27   50.82   23.19    0.00    0.00    0.05    0.04    0.00     0.00    0.00    0.00    0.00
    7    9.77    0.00    0.97    4.66    0.00    0.00   93.16   28.33   66.90   16.06    0.00    0.00    0.02    0.00    0.00     0.00    0.00    0.00    0.00
    8   17.70    0.02    0.88    2.43    6.42    0.00   93.59   27.62   51.76   11.48    0.06    0.00    0.01    0.38    0.00     0.04    0.00    0.00    0.00
    9   24.88    1.58    2.14    5.12   21.00    0.00  100.91   20.37   33.85   15.00    3.64    0.00    0.02    1.07    0.00     3.36    0.00    0.41    0.00
   10   80.64    6.60    4.76   11.70   40.31    0.00  125.38   25.75   27.65   28.74   24.17    0.00    0.04    2.20    0.00    13.62    0.00    1.67    0.00
   11   84.03   19.83    8.72   18.64   67.70    0.00  131.48   19.08   20.10   55.48   64.73    0.00    0.10    3.80    0.00    23.05    0.00    2.82    0.00
   12   53.96   15.29    9.87   26.07   63.00    0.00  123.44   23.98   27.22   64.77   37.50    0.00    0.09    2.30    0.00     4.25    0.00    0.52    0.00

 1989  524.07   60.92   47.13   97.25  307.07    0.00  123.44  245.44  370.78  287.14  185.46    0.01    0.76   22.33    0.00   148.12    0.01   18.14    0.00
1
    SWAT Dec 23 2016    VER 2016/Rev 664                                            

    General Input/Output section (file.cio):                                        
    5/31/2025 12:00:00 AM ARCGIS-SWAT interface AV                                  
                                                                                    
Annual Summary for Watershed in year    2 of simulation

UNIT                                    PERCO    TILE                           WATER     SED     NO3     NO3     NO3     NO3        N       P       P
TIME     PREC    SURQ    LATQ     GWQ    LATE       Q     SW       ET     PET   YIELD   YIELD    SURQ    LATQ    PERC    CROP  ORGANIC SOLUBLE ORGANIC TILENO3
         (mm)    (mm)    (mm)    (mm)    (mm)    (mm)    (mm)    (mm)    (mm)    (mm)   (t/ha)  ------------------(kg nutrient/ha)-------------------- (kg/ha)
    1  135.83   26.23   12.72   30.13  106.86    0.00  134.52   13.54   13.78   87.60   67.29    0.00    0.10    4.50    0.00    24.98    0.00    3.06    0.00
    2   82.49   16.34   13.49   30.92   69.32    0.00  131.96   17.56   18.51   85.05   58.73    0.00    0.09    1.81    0.00    10.64    0.00    1.30    0.00
    3   71.51    7.53   12.66   32.78   58.70    0.00  121.79   31.63   35.28   85.43   24.65    0.00    0.07    1.35    0.00     4.26    0.00    0.52    0.00
    4   59.53    6.04    9.03   26.94   35.10    0.00  113.18   40.75   46.96   74.63   25.90    0.00    0.04    0.64    0.00     4.42    0.00    0.54    0.00
    5   24.18    0.05    5.22   20.79    6.37    0.00  106.28   38.81   62.39   56.93    0.16    0.00    0.02    0.04    0.00     0.00    0.00    0.00    0.00
    6   24.33    0.00    2.29   12.01    1.65    0.00  103.63   32.40   49.51   38.83    0.00    0.00    0.01    0.01    0.00     0.00    0.00    0.00    0.00
    7   15.64    0.00    1.18    6.20    1.81    0.00   97.58   29.97   53.44   27.07    0.00    0.00    0.00    0.02    0.00     0.00    0.00    0.00    0.00
    8   21.06    0.41    1.18    4.05   10.21    0.00  100.42   25.22   44.31   20.52    1.96    0.00    0.00    0.14    0.00     0.00    0.00    0.00    0.00
    9   28.14    2.12    2.74    7.12   22.77    0.00  104.27   25.69   34.62   23.11    4.16    0.00    0.01    0.29    0.00     0.00    0.00    0.00    0.00
   10   65.77    6.60    4.99   13.67   40.10    0.00  123.53   25.35   28.36   34.86   16.83    0.00    0.01    0.68    0.00     0.35    0.00    0.04    0.00
   11  134.82   26.54   10.22   20.58   92.03    0.00  135.51   21.44   21.90   68.36   74.86    0.00    0.05    2.69    0.00     7.69    0.00    0.94    0.00
   12  142.56   31.11   14.88   29.19  112.97    0.00  139.04   12.35   13.02   94.94   91.47    0.00    0.07    2.48    0.00     4.88    0.00    0.60    0.00

 1990  805.86  122.95   90.62  234.38  557.86    0.00  139.04  314.71  422.07  697.34  366.00    0.00    0.49   14.65    0.00    57.24    0.00    7.01    0.00
1
    SWAT Dec 23 2016    VER 2016/Rev 664                                            

    General Input/Output section (file.cio):                                        
    5/31/2025 12:00:00 AM ARCGIS-SWAT interface AV                                  
                                                                                    
Annual Summary for Watershed in year    3 of simulation

UNIT                                    PERCO    TILE                           WATER     SED     NO3     NO3     NO3     NO3        N       P       P
TIME     PREC    SURQ    LATQ     GWQ    LATE       Q     SW       ET     PET   YIELD   YIELD    SURQ    LATQ    PERC    CROP  ORGANIC SOLUBLE ORGANIC TILENO3
         (mm)    (mm)    (mm)    (mm)    (mm)    (mm)    (mm)    (mm)    (mm)    (mm)   (t/ha)  ------------------(kg nutrient/ha)-------------------- (kg/ha)
    1  113.58   24.50   17.40   34.91  105.41    0.00  134.61   17.07   17.55  107.71   66.92    0.00    0.07    1.50    0.00    13.78    0.00    1.69    0.00
    2  136.32   32.02   15.63   33.47   93.04    0.00  137.02   22.15   23.44  116.92  105.43    0.00    0.04    1.09    0.00    13.52    0.00    1.66    0.00
    3  154.33   24.77   19.06   37.60  117.00    0.00  121.69   27.19   29.45  129.10   76.56    0.00    0.04    1.14    0.00     4.07    0.00    0.50    0.00
    4   68.48    4.85   13.19   32.53   44.33    0.00  119.31   31.14   32.40  101.58   15.01    0.00    0.03    0.34    0.00     0.38    0.00    0.05    0.00
    5   29.33    0.24    7.86   25.35   12.23    0.00  109.64   37.93   47.67   82.89    0.89    0.00    0.01    0.07    0.00     0.01    0.00    0.00    0.00
    6   14.95    0.00    3.23   14.99    1.16    0.00  100.23   32.14   55.51   58.08    0.00    0.00    0.01    0.01    0.00     0.00    0.00    0.00    0.00
    7   12.07    0.00    1.31    6.99    0.41    0.00   94.45   29.45   63.01   40.46    0.00    0.00    0.00    0.00    0.00     0.00    0.00    0.00    0.00
    8   18.28    0.24    1.34    2.89   11.42    0.00   96.59   25.30   47.09   28.76    0.72    0.00    0.00    0.14    0.00     0.00    0.00    0.00    0.00
    9   19.85    2.34    2.64    7.02   21.56    0.00   99.08   22.25   37.60   29.89    5.99    0.00    0.01    0.25    0.00     0.00    0.00    0.00    0.00
   10   59.85    5.82    4.41   13.32   30.12    0.00  122.82   23.70   28.74   38.21   23.64    0.00    0.01    0.31    0.00     0.12    0.00    0.01    0.00
   11   64.25   10.63    6.29   17.82   50.72    0.00  130.59   21.43   23.54   47.22   30.80    0.00    0.02    0.76    0.00     0.32    0.00    0.04    0.00
   12   81.38   20.44    9.95   24.56   80.69    0.00  130.55   15.00   15.65   69.85   56.44    0.00    0.03    1.21    0.00     0.50    0.00    0.06    0.00

 1991  772.68  125.86  102.32  251.46  568.08    0.00  130.55  304.75  421.66  850.68  382.39    0.00    0.27    6.82    0.00    32.69    0.00    4.00    0.00
1
    SWAT Dec 23 2016    VER 2016/Rev 664                                            

    General Input/Output section (file.cio):                                        
    5/31/2025 12:00:00 AM ARCGIS-SWAT interface AV                                  
                                                                                    
Annual Summary for Watershed in year    4 of simulation

UNIT                                    PERCO    TILE                           WATER     SED     NO3     NO3     NO3     NO3        N       P       P
TIME     PREC    SURQ    LATQ     GWQ    LATE       Q     SW       ET     PET   YIELD   YIELD    SURQ    LATQ    PERC    CROP  ORGANIC SOLUBLE ORGANIC TILENO3
         (mm)    (mm)    (mm)    (mm)    (mm)    (mm)    (mm)    (mm)    (mm)    (mm)   (t/ha)  ------------------(kg nutrient/ha)-------------------- (kg/ha)
    1  110.78   32.53   14.05   31.24   98.39    0.00  124.63   19.91   20.94   99.11  120.08    0.00    0.04    1.40    0.00    19.27    0.00    2.36    0.00
    2  109.97   20.10   13.07   32.09   80.62    0.00  133.90   18.37   19.34   91.56   76.00    0.00    0.03    0.99    0.00     4.37    0.00    0.53    0.00
    3  100.18   14.08   14.37   34.48   66.60    0.00  128.84   38.14   41.75   97.17   56.37    0.00    0.04    0.71    0.00     3.32    0.00    0.41    0.00
    4   39.39    5.15    9.39   28.75   30.17    0.00  117.79   34.28   41.53   78.48   22.04    0.00    0.02    0.25    0.00     0.96    0.00    0.12    0.00
    5   12.86    0.06    4.97   21.33    4.93    0.00  100.39   42.34   77.74   58.73    0.23    0.00    0.01    0.03    0.00     0.00    0.00    0.00    0.00
    6   13.67    0.00    1.93   11.47    0.02    0.00   94.79   28.31   60.33   38.68    0.00    0.00    0.00    0.00    0.00     0.00    0.00    0.00    0.00
    7   12.45    0.00    0.83    4.40    0.34    0.00   91.54   26.42   60.03   25.33    0.00    0.00    0.00    0.00    0.00     0.00    0.00    0.00    0.00
    8   20.03    0.09    0.94    1.92    8.01    0.00   94.61   25.32   49.00   18.04    0.35    0.00    0.00    0.10    0.00     0.00    0.00    0.00    0.00
    9   19.96    2.50    2.33    5.69   21.68    0.00   97.26   23.98   41.49   21.61    5.98    0.00    0.01    0.28    0.00     0.00    0.00    0.00    0.00
   10   87.54   14.86    5.10   12.66   44.28    0.00  125.08   21.30   23.33   42.10   51.23    0.00    0.02    0.73    0.00     0.94    0.00    0.12    0.00
   11   60.63   15.41    7.76   19.35   55.09    0.00  125.98   19.53   20.83   52.55   50.96    0.00    0.03    0.90    0.00     0.86    0.00    0.11    0.00
   12   96.81   27.48   10.43   26.01   81.28    0.00  134.94   17.26   18.82   77.60   73.23    0.00    0.03    1.33    0.00     0.72    0.00    0.09    0.00

 1992  684.25  132.27   85.17  229.39  491.41    0.00  134.94  315.18  475.13  700.94  456.47    0.00    0.24    6.72    0.00    30.44    0.00    3.73    0.00
1
    SWAT Dec 23 2016    VER 2016/Rev 664                                            

    General Input/Output section (file.cio):                                        
    5/31/2025 12:00:00 AM ARCGIS-SWAT interface AV                                  
                                                                                    
Annual Summary for Watershed in year    5 of simulation

UNIT                                    PERCO    TILE                           WATER     SED     NO3     NO3     NO3     NO3        N       P       P
TIME     PREC    SURQ    LATQ     GWQ    LATE       Q     SW       ET     PET   YIELD   YIELD    SURQ    LATQ    PERC    CROP  ORGANIC SOLUBLE ORGANIC TILENO3
         (mm)    (mm)    (mm)    (mm)    (mm)    (mm)    (mm)    (mm)    (mm)    (mm)   (t/ha)  ------------------(kg nutrient/ha)-------------------- (kg/ha)
    1  284.84  101.14   16.88   32.69  156.00    0.00  150.49   10.97   11.53  171.90  330.68    0.00    0.06    2.14    0.00    30.55    0.00    3.74    0.00
    2  332.50  142.53   24.71   37.87  175.26    0.00  141.04    7.42    8.63  240.77  639.78    0.00    0.04    0.18    0.00     0.98    0.00    0.12    0.00
    3  192.85   43.69   26.02   45.79  141.28    0.00  125.54   17.93   20.68  174.55  128.58    0.00    0.02    0.25    0.00     0.10    0.00    0.01    0.00
    4  107.48   11.37   18.59   39.34   70.13    0.00  120.74   34.75   35.70  136.29   29.92    0.00    0.01    0.23    0.00     0.02    0.00    0.00    0.00
    5   32.04    0.20   10.84   30.54   12.53    0.00  112.23   37.68   45.25  109.23    0.55    0.00    0.01    0.05    0.00     0.00    0.00    0.00    0.00
    6   13.74    0.00    4.21   17.30    0.35    0.00  100.39   34.26   62.43   76.91    0.00    0.00    0.00    0.00    0.00     0.00    0.00    0.00    0.00
    7   13.60    0.00    1.66    8.36    0.04    0.00   94.19   31.58   66.31   55.00    0.00    0.00    0.00    0.00    0.00     0.00    0.00    0.00    0.00
    8   17.99    0.03    1.22    4.00    7.55    0.00   94.35   27.83   53.14   39.30    0.08    0.00    0.00    0.08    0.00     0.00    0.00    0.00    0.00
    9   33.35    2.04    2.10    5.48   19.16    0.00  105.86   23.99   36.98   34.43    5.74    0.00    0.01    0.23    0.00     0.00    0.00    0.00    0.00
   10  127.48   16.02    6.50   12.24   73.15    0.00  131.28   24.78   26.40   55.16   43.22    0.00    0.02    1.03    0.00     0.02    0.00    0.00    0.00
   11  210.60   39.72   14.76   22.55  128.62    0.00  140.51   13.41   14.82  100.50  123.04    0.00    0.04    1.55    0.00     0.08    0.00    0.01    0.00
   12  249.20   74.21   22.24   33.48  177.97    0.00  144.83    7.00    7.69  167.71  251.44    0.00    0.04    1.22    0.03     0.15    0.00    0.02    0.00

 1993 1615.65  430.95  149.73  289.65  962.02    0.00  144.83  271.61  389.55 1361.74 1553.03    0.00    0.25    6.98    0.03    31.91    0.01    3.91    0.00
1
    SWAT Dec 23 2016    VER 2016/Rev 664                                            

    General Input/Output section (file.cio):                                        
    5/31/2025 12:00:00 AM ARCGIS-SWAT interface AV                                  
                                                                                    
Annual Summary for Watershed in year    6 of simulation

UNIT                                    PERCO    TILE                           WATER     SED     NO3     NO3     NO3     NO3        N       P       P
TIME     PREC    SURQ    LATQ     GWQ    LATE       Q     SW       ET     PET   YIELD   YIELD    SURQ    LATQ    PERC    CROP  ORGANIC SOLUBLE ORGANIC TILENO3
         (mm)    (mm)    (mm)    (mm)    (mm)    (mm)    (mm)    (mm)    (mm)    (mm)   (t/ha)  ------------------(kg nutrient/ha)-------------------- (kg/ha)
    1  309.74   98.92   26.99   42.33  183.40    0.00  150.23   12.64   13.48  224.08  292.93    0.00    0.03    0.67    0.00    28.71    0.00    3.51    0.00
    2  399.62  166.07   29.08   43.58  212.76    0.00  146.62    4.19    5.12  306.22  521.81    0.00    0.02    0.15    0.00     1.19    0.00    0.15    0.00
    3  180.06   30.50   29.23   50.74  133.12    0.00  134.50   25.86   29.02  202.47  100.38    0.00    0.01    0.19    0.00     0.07    0.00    0.01    0.00
    4  141.68   17.48   21.77   42.70   92.78    0.00  122.77   43.69   46.18  176.40   45.93    0.00    0.01    0.28    0.00     0.03    0.00    0.00    0.00
    5   29.22    0.18   12.78   33.84   13.08    0.00  103.24   49.14   73.27  138.92    0.44    0.00    0.01    0.05    0.00     0.00    0.00    0.00    0.00
    6   13.46    0.00    4.73   18.61    0.00    0.00   94.56   31.97   70.41   97.74    0.00    0.00    0.00    0.00    0.00     0.00    0.00    0.00    0.00
    7    9.85    0.00    1.83    8.09    0.00    0.00   89.14   28.17   69.81   69.96    0.00    0.00    0.00    0.00    0.00     0.00    0.00    0.00    0.00
    8   19.26    0.27    1.22    2.02    7.55    0.00   93.98   27.98   61.54   48.82    0.74    0.00    0.00    0.09    0.00     0.00    0.00    0.00    0.00
    9   44.68    8.10    2.62    5.76   23.54    0.00  107.08   28.26   45.04   49.44   42.34    0.00    0.01    0.27    0.00     0.01    0.00    0.00    0.00
   10   57.03    6.88    5.02   13.12   34.11    0.00  118.53   32.26   39.16   51.30   22.32    0.00    0.01    0.33    0.00     0.00    0.00    0.00    0.00
   11  112.17   27.03    9.14   19.74   72.86    0.00  130.63   20.01   22.35   78.31   80.88    0.00    0.03    0.93    0.00     0.04    0.00    0.01    0.00
   12  176.82   53.35   13.11   27.12  115.51    0.00  145.94   12.33   12.87  119.35  149.38    0.00    0.03    1.33    0.00     0.07    0.00    0.01    0.00

 1994 1493.58  408.78  157.52  307.64  888.71    0.00  145.94  316.49  488.25 1563.00 1257.15    0.00    0.16    4.30    0.00    30.12    0.00    3.69    0.00
1
    SWAT Dec 23 2016    VER 2016/Rev 664                                            

    General Input/Output section (file.cio):                                        
    5/31/2025 12:00:00 AM ARCGIS-SWAT interface AV                                  
                                                                                    
Annual Summary for Watershed in year    7 of simulation

UNIT                                    PERCO    TILE                           WATER     SED     NO3     NO3     NO3     NO3        N       P       P
TIME     PREC    SURQ    LATQ     GWQ    LATE       Q     SW       ET     PET   YIELD   YIELD    SURQ    LATQ    PERC    CROP  ORGANIC SOLUBLE ORGANIC TILENO3
         (mm)    (mm)    (mm)    (mm)    (mm)    (mm)    (mm)    (mm)    (mm)    (mm)   (t/ha)  ------------------(kg nutrient/ha)-------------------- (kg/ha)
    1  218.42   81.66   19.77   35.20  148.97    0.00  137.36   17.88   18.55  171.83  232.94    0.00    0.04    0.95    0.00    28.12    0.00    3.44    0.00
    2  160.64   44.66   19.29   36.84  109.99    0.00  133.45   20.05   20.97  143.52  163.66    0.00    0.03    0.51    0.00     0.79    0.00    0.10    0.00
    3  209.71   45.92   21.95   41.55  132.58    0.00  131.98   29.43   30.50  166.76  150.26    0.00    0.02    0.56    0.00     0.37    0.00    0.05    0.00
    4   83.50    8.97   17.07   37.53   59.99    0.00  115.24   43.08   48.52  126.08   29.80    0.00    0.02    0.24    0.00     0.02    0.00    0.00    0.00
    5   15.33    0.01    8.46   28.48    6.47    0.00  100.35   39.47   68.97   97.83    0.01    0.00    0.01    0.03    0.00     0.00    0.00    0.00    0.00
    6    7.83    0.00    3.16   15.32    0.00    0.00   89.41   30.96   83.50   67.03    0.00    0.00    0.00    0.00    0.00     0.00    0.00    0.00    0.00
    7    9.22    0.00    1.24    7.01    0.00    0.00   83.55   31.13   91.13   47.23    0.00    0.00    0.00    0.00    0.00     0.00    0.00    0.00    0.00
    8   10.67    0.36    0.98    1.73    7.41    0.00   83.71   29.24   75.21   32.41    1.83    0.00    0.00    0.09    0.00     0.00    0.00    0.00    0.00
    9   32.54    4.79    2.46    5.47   21.94    0.00   96.18   23.93   46.50   34.05   21.56    0.00    0.01    0.26    0.00     0.01    0.00    0.00    0.00
   10   63.95   12.15    4.77   13.01   34.33    0.00  122.15   24.91   33.45   47.12   42.09    0.00    0.01    0.32    0.00     0.01    0.00    0.00    0.00
   11  158.25   49.40   10.93   20.83  110.01    0.00  121.46   18.27   20.82   97.03  140.15    0.00    0.03    1.49    0.00     0.14    0.00    0.02    0.00
   12  171.03   63.17   13.08   29.83   86.02    0.00  146.53   14.23   17.15  128.50  207.74    0.00    0.03    0.69    0.00     0.13    0.00    0.02    0.00

 1995 1141.10  311.09  123.15  272.80  717.72    0.00  146.53  322.58  555.28 1159.39  990.04    0.00    0.19    5.13    0.00    29.58    0.00    3.62    0.00
1
    SWAT Dec 23 2016    VER 2016/Rev 664                                            

    General Input/Output section (file.cio):                                        
    5/31/2025 12:00:00 AM ARCGIS-SWAT interface AV                                  
                                                                                    
Annual Summary for Watershed in year    8 of simulation

UNIT                                    PERCO    TILE                           WATER     SED     NO3     NO3     NO3     NO3        N       P       P
TIME     PREC    SURQ    LATQ     GWQ    LATE       Q     SW       ET     PET   YIELD   YIELD    SURQ    LATQ    PERC    CROP  ORGANIC SOLUBLE ORGANIC TILENO3
         (mm)    (mm)    (mm)    (mm)    (mm)    (mm)    (mm)    (mm)    (mm)    (mm)   (t/ha)  ------------------(kg nutrient/ha)-------------------- (kg/ha)
    1  273.09   83.77   22.74   37.44  189.46    0.00  137.70    9.95   11.16  177.65  287.33    0.00    0.03    0.66    0.00    28.08    0.00    3.44    0.00
    2  323.30  123.42   25.18   41.57  173.50    0.00  142.55   11.21   12.49  238.64  406.45    0.00    0.02    0.38    0.00     1.19    0.00    0.15    0.00
    3  198.01   49.19   26.17   46.94  125.39    0.00  134.81   32.42   34.13  191.72  159.27    0.00    0.01    0.23    0.00     0.10    0.00    0.01    0.00
    4  102.53   17.31   19.03   40.31   69.57    0.00  114.66   43.22   49.10  151.33   64.33    0.00    0.01    0.22    0.00     0.03    0.00    0.00    0.00
    5   17.28    0.07    9.15   29.60    4.96    0.00  103.23   38.01   66.37  111.14    0.31    0.00    0.01    0.02    0.00     0.00    0.00    0.00    0.00
    6    5.01    0.00    3.42   15.48    0.04    0.00   88.44   32.46   91.39   76.41    0.00    0.00    0.00    0.00    0.00     0.00    0.00    0.00    0.00
    7    4.95    0.00    1.30    7.10    0.00    0.00   80.87   29.04  100.27   54.50    0.00    0.00    0.00    0.00    0.00     0.00    0.00    0.00    0.00
    8   17.31    0.20    0.97    1.63    6.82    0.00   86.90   26.29   60.75   37.48    0.61    0.00    0.00    0.08    0.00     0.00    0.00    0.00    0.00
    9   19.63    2.66    2.46    5.46   22.72    0.00   90.81   21.92   40.92   35.78    6.32    0.00    0.01    0.26    0.00     0.00    0.00    0.00    0.00
   10   59.85    9.08    4.60   12.87   32.41    0.00  118.67   23.93   35.45   46.71   23.79    0.00    0.01    0.29    0.00     0.00    0.00    0.00    0.00
   11   67.27   14.84    6.70   19.01   48.54    0.00  129.86   24.74   26.93   56.71   51.15    0.00    0.01    0.51    0.00     0.01    0.00    0.00    0.00
   12  147.54   38.13   12.61   26.24  114.49    0.00  125.28   18.87   20.79   95.27  112.44    0.00    0.03    1.56    0.00     0.05    0.00    0.01    0.00

 1996 1235.77  338.66  134.33  283.64  787.92    0.00  125.28  312.06  549.76 1273.34 1111.98    0.00    0.15    4.22    0.00    29.46    0.00    3.61    0.00
1
    SWAT Dec 23 2016    VER 2016/Rev 664                                            

    General Input/Output section (file.cio):                                        
    5/31/2025 12:00:00 AM ARCGIS-SWAT interface AV                                  
                                                                                    
Annual Summary for Watershed in year    9 of simulation

UNIT                                    PERCO    TILE                           WATER     SED     NO3     NO3     NO3     NO3        N       P       P
TIME     PREC    SURQ    LATQ     GWQ    LATE       Q     SW       ET     PET   YIELD   YIELD    SURQ    LATQ    PERC    CROP  ORGANIC SOLUBLE ORGANIC TILENO3
         (mm)    (mm)    (mm)    (mm)    (mm)    (mm)    (mm)    (mm)    (mm)    (mm)   (t/ha)  ------------------(kg nutrient/ha)-------------------- (kg/ha)
    1  235.64   77.18   18.29   33.80  144.89    0.00  134.96   13.53   14.90  156.97  238.45    0.00    0.04    1.35    0.00    27.38    0.00    3.35    0.00
    2  314.99  117.78   21.57   36.17  169.48    0.00  138.82    9.41   10.66  213.57  380.48    0.00    0.03    0.53    0.00     1.69    0.00    0.21    0.00
    3   51.04    6.51   21.21   43.03   55.74    0.00  115.64   33.14   39.71  128.63   20.45    0.00    0.02    0.07    0.00     0.01    0.00    0.00    0.00
    4   53.42   13.22   10.25   32.34   19.67    0.00  116.97   35.11   44.66  112.52   61.23    0.00    0.01    0.07    0.00     0.03    0.00    0.00    0.00
    5   14.01    0.02    5.27   22.02    4.00    0.00  101.20   41.05   74.66   77.34    0.05    0.00    0.00    0.02    0.00     0.00    0.00    0.00    0.00
    6    6.10    0.00    1.98   11.33    0.02    0.00   89.17   29.74   82.97   51.64    0.00    0.00    0.00    0.00    0.00     0.00    0.00    0.00    0.00
    7    6.49    0.00    0.78    4.49    0.00    0.00   83.45   28.29   93.38   35.49    0.00    0.00    0.00    0.00    0.00     0.00    0.00    0.00    0.00
    8   26.19    0.23    0.83    1.23    7.62    0.00   94.19   23.81   41.31   24.86    0.70    0.00    0.00    0.09    0.00     0.00    0.00    0.00    0.00
    9   40.90    6.61    2.41    5.30   21.04    0.00  109.65   26.71   55.73   30.74   28.14    0.00    0.01    0.25    0.00     0.01    0.00    0.00    0.00
   10   70.31   17.49    4.81   12.62   33.85    0.00  128.89   34.95   44.43   48.27   72.51    0.00    0.01    0.32    0.00     0.01    0.00    0.00    0.00
   11  157.84   54.13   10.56   20.45   97.58    0.00  134.81   21.36   23.88   98.83  177.60    0.00    0.03    1.26    0.00     0.08    0.00    0.01    0.00
   12  253.00  105.00   16.80   30.16  150.12    0.00  135.49   13.43   13.77  174.32  374.65    0.00    0.04    1.34    0.00     0.18    0.00    0.02    0.00

 1997 1229.94  398.18  114.78  252.95  704.02    0.00  135.49  310.54  540.05 1153.19 1354.27    0.00    0.19    5.31    0.00    29.38    0.00    3.59    0.00
1
    SWAT Dec 23 2016    VER 2016/Rev 664                                            

    General Input/Output section (file.cio):                                        
    5/31/2025 12:00:00 AM ARCGIS-SWAT interface AV                                  
                                                                                    
Annual Summary for Watershed in year   10 of simulation

UNIT                                    PERCO    TILE                           WATER     SED     NO3     NO3     NO3     NO3        N       P       P
TIME     PREC    SURQ    LATQ     GWQ    LATE       Q     SW       ET     PET   YIELD   YIELD    SURQ    LATQ    PERC    CROP  ORGANIC SOLUBLE ORGANIC TILENO3
         (mm)    (mm)    (mm)    (mm)    (mm)    (mm)    (mm)    (mm)    (mm)    (mm)   (t/ha)  ------------------(kg nutrient/ha)-------------------- (kg/ha)
    1  327.53  141.25   24.21   39.79  181.72    0.00  142.05   16.07   16.35  243.07  502.36    0.00    0.03    0.60    0.00    28.70    0.00    3.51    0.00
    2  309.24  132.20   25.37   42.57  160.19    0.00  145.63   19.54   20.29  251.03  532.64    0.00    0.02    0.28    0.00     0.28    0.00    0.03    0.00
    3  199.60   50.68   26.11   48.58  135.35    0.00  132.79   32.31   35.48  197.41  165.55    0.00    0.01    0.28    0.00     0.09    0.00    0.01    0.00
    4   82.85   18.49   18.88   42.41   55.57    0.00  121.35   34.47   41.41  156.29   74.64    0.00    0.01    0.14    0.00     0.02    0.00    0.00    0.00
    5    6.45    0.00    8.73   30.61    4.19    0.00   96.78   46.64   95.75  112.01    0.00    0.00    0.00    0.01    0.00     0.00    0.00    0.00    0.00
    6    7.20    0.00    3.14   15.39    0.00    0.00   85.90   30.84   91.58   75.72    0.00    0.00    0.00    0.00    0.00     0.00    0.00    0.00    0.00
    7    5.23    0.00    1.21    6.71    0.00    0.00   79.93   27.67   95.73   53.57    0.00    0.00    0.00    0.00    0.00     0.00    0.00    0.00    0.00
    8   13.61    0.28    0.94    1.43    6.02    0.00   82.39   28.95   73.16   36.92    1.06    0.00    0.00    0.07    0.00     0.00    0.00    0.00    0.00
    9   31.56    6.32    2.25    4.96   21.46    0.00   96.02   25.25   56.35   38.35   25.97    0.01    0.01    0.25    0.00     0.00    0.00    0.00    0.00
   10   80.89   17.81    5.50   13.00   41.77    0.00  120.07   30.05   37.29   56.20   59.72    0.00    0.01    0.42    0.00     0.01    0.00    0.00    0.00
   11   81.83   20.88    5.39   13.52   46.93    0.00  136.27   19.39   22.67   51.57   60.05    0.00    0.01    0.58    0.00     0.02    0.00    0.00    0.00

 1998 1145.99  387.91  121.73  258.96  653.20    0.00  136.27  311.17  586.07 1272.12 1421.98    0.01    0.11    2.62    0.00    29.12    0.00    3.56    0.00
1
    SWAT Dec 23 2016    VER 2016/Rev 664                                            

    General Input/Output section (file.cio):                                        
    5/31/2025 12:00:00 AM ARCGIS-SWAT interface AV                                  
                                                                                    
    FINAL VALUES

1
    SWAT Dec 23 2016    VER 2016/Rev 664                                            

    General Input/Output section (file.cio):                                        
    5/31/2025 12:00:00 AM ARCGIS-SWAT interface AV                                  
                                                                                    
                                            Average Plant Values (kg/ha)

  HRU       1 SUB   1 PJNL  Yld =     0.0 BIOM =      2.4
  HRU       2 SUB   1 PJNL  Yld =     0.0 BIOM =      2.4
  HRU       3 SUB   1 BARR  Yld =     0.0 BIOM =      0.0
  HRU       4 SUB   1 BARR  Yld =     0.0 BIOM =      0.0
  HRU       5 SUB   1 WETN  Yld =     0.0 BIOM =      0.0
  HRU       6 SUB   1 WATR  Yld =     0.0 BIOM =      0.0
  HRU       7 SUB   1 ES9   Yld =     0.0 BIOM =      0.0
  HRU       8 SUB   1 ES9   Yld =     0.0 BIOM =      0.0
  HRU       9 SUB   1 ES10  Yld =     0.0 BIOM =      0.0
  HRU      10 SUB   1 ES11  Yld =     0.0 BIOM =      0.0
  HRU      11 SUB   1 ES12  Yld =     0.0 BIOM =      0.0
  HRU      12 SUB   1 ES13  Yld =     0.0 BIOM =      0.0
  HRU      13 SUB   2 BARR  Yld =     0.0 BIOM =      0.0
  HRU      14 SUB   2 BARR  Yld =     0.0 BIOM =      0.0
  HRU      15 SUB   2 WATR  Yld =     0.0 BIOM =      0.0
  HRU      16 SUB   2 PJNL  Yld =     0.0 BIOM =      0.0
  HRU      17 SUB   2 PJNL  Yld =     0.0 BIOM =      0.0
  HRU      18 SUB   2 ES10  Yld =     0.0 BIOM =      0.0
  HRU      19 SUB   2 ES11  Yld =     0.0 BIOM =      0.0
  HRU      20 SUB   2 ES13  Yld =     0.0 BIOM =      0.0
  HRU      21 SUB   2 ES13  Yld =     0.0 BIOM =      0.0
  HRU      22 SUB   2 ES12  Yld =     0.0 BIOM =      0.0
  HRU      23 SUB   2 ES12  Yld =     0.0 BIOM =      0.0
  HRU      24 SUB   2 ES8   Yld =     0.0 BIOM =      0.0
  HRU      25 SUB   2 ES8   Yld =     0.0 BIOM =      0.0
  HRU      26 SUB   2 ES9   Yld =     0.0 BIOM =      0.0
  HRU      27 SUB   2 ES14  Yld =     0.0 BIOM =      0.0
  HRU      28 SUB   2 ES15  Yld =     0.0 BIOM =      0.0
  HRU      29 SUB   2 ES16  Yld =     0.0 BIOM =      0.0
  HRU      30 SUB   3 ES11  Yld =     0.0 BIOM =      0.0
  HRU      31 SUB   3 ES12  Yld =     0.0 BIOM =      0.0
  HRU      32 SUB   3 ES10  Yld =     0.0 BIOM =      0.0
  HRU      33 SUB   3 BARR  Yld =     0.0 BIOM =      0.0
  HRU      34 SUB   3 BARR  Yld =     0.0 BIOM =      0.0
  HRU      35 SUB   3 ES9   Yld =     0.0 BIOM =      0.0
  HRU      36 SUB   3 ES9   Yld =     0.0 BIOM =      0.0
  HRU      37 SUB   3 ES8   Yld =     0.0 BIOM =      0.0
  HRU      38 SUB   3 PJNL  Yld =     0.0 BIOM =      0.0
  HRU      39 SUB   3 PJNL  Yld =     0.0 BIOM =      0.0
  HRU      40 SUB   3 ES13  Yld =     0.0 BIOM =      0.0
  HRU      41 SUB   3 ES14  Yld =     0.0 BIOM =      0.0
  HRU      42 SUB   3 WATR  Yld =     0.0 BIOM =      0.0
  HRU      43 SUB   3 ES7   Yld =     0.0 BIOM =      0.0
  HRU      44 SUB   3 ES7   Yld =     0.0 BIOM =      0.0
  HRU      45 SUB   3 ES6   Yld =     0.0 BIOM =      0.0
  HRU      46 SUB   3 ES6   Yld =     0.0 BIOM =      0.0
  HRU      47 SUB   3 ES5   Yld =     0.0 BIOM =      0.0
  HRU      48 SUB   3 ES5   Yld =     0.0 BIOM =      0.0
  HRU      49 SUB   3 ES4   Yld =     0.0 BIOM =      0.0

    HRU STATISTICS

                AVE ANNUAL VALUES

   HRU  SUB  SOIL       AREAkm2    CN     AWCmm   USLE_LS  IRRmm  AUTONkh AUTOPkh  MIXEF PRECmm SURQGENmm   GWQmm    ETmm   SEDth  NO3kgh  ORGNkgh BIOMth   YLDth  SURQmm
      1   1   I-Bh-Tv-   .113E+01   82.95  120.00    5.68    0.00    0.00    0.00    0.21 1030.67  206.34   60.48  257.79  469.25    0.22   47.42    0.00    0.00  206.34
      2   1   I-Bh-Tv-   .255E-01   82.95  120.00    0.07    0.00    0.00    0.00    0.21 1030.67  209.77    0.00  258.21    0.96    0.01   10.74    0.00    0.00  209.59
      3   1   I-Bh-Tv-   .108E+01   82.95  120.00   10.17    0.00    0.00    0.00    0.21 1030.67  205.28   85.89  254.42  841.37    0.34   48.33    0.00    0.00  205.28
      4   1   I-Bh-Tv-   .563E-02   82.95  120.00    0.07    0.00    0.00    0.00    0.21 1030.67  210.15    0.00  255.02    0.83    0.01    9.54    0.00    0.00  209.97
      5   1   I-Bh-Tv-   .146E+00   82.95  120.00    0.07    0.00    0.00    0.00    0.21 1030.67  210.07    0.00  255.67    1.72    0.01   16.42    0.00    0.00  210.02
      6   1   I-Bh-Tv-   .570E-01   82.95  120.00    0.07    0.00    0.00    0.00    0.21 1030.67    0.00    0.00  668.21    0.00    0.00    0.00    0.00    0.00    0.00
      7   1   I-Bh-Tv-   .844E-02   82.95  120.00   10.94    0.00    0.00    0.00    0.21 1030.67  211.80   96.58  355.33  568.58    0.34   47.65    0.00    0.00  211.80
      8   1   I-Bh-Tv-   .156E-03   82.95  120.00    0.07    0.00    0.00    0.00    0.21 1030.67  217.15    0.00  355.82    0.51    0.00    6.32    0.00    0.00  216.97
      9   1   I-Bh-Tv-   .922E-02   82.95  120.00   18.79    0.00    0.00    0.00    0.21 1030.67  209.49  141.67  355.39  978.82    0.54   48.43    0.00    0.00  209.49
     10   1   I-Bh-Tv-   .594E-02   82.95  120.00   13.09    0.00    0.00    0.00    0.21 1030.67  211.34  109.13  355.59  651.42    0.41   47.87    0.00    0.00  211.34
     11   1   I-Bh-Tv-   .234E-02   82.95  120.00   10.89    0.00    0.00    0.00    0.21 1030.67  212.03   96.79  355.66  485.77    0.34   47.36    0.00    0.00  212.03
     12   1   I-Bh-Tv-   .969E-02   82.95  120.00   10.73    0.00    0.00    0.00    0.21 1030.67  212.08   95.88  355.67  567.47    0.34   47.65    0.00    0.00  212.08
     13   2   I-Bh-Tv-   .971E+00   82.95  120.00   11.13    0.00    0.00    0.00    0.21 1167.26  212.78  109.07  265.13  969.11    0.33   48.82    0.00    0.00  212.78
     14   2   I-Bh-Tv-   .531E-02   82.95  120.00    0.07    0.00    0.00    0.00    0.21 1167.26  215.57    0.00  263.37    0.87    0.00    9.91    0.00    0.00  215.39
     15   2   I-Bh-Tv-   .273E-01   82.95  120.00    0.07    0.00    0.00    0.00    0.21 1167.26    0.00    0.00  633.12    0.00    0.00    0.00    0.00    0.00    0.00
     16   2   I-Bh-Tv-   .728E-01   82.95  120.00    7.41    0.00    0.00    0.00    0.21 1167.26  210.81   84.98  263.07  474.07    0.25   47.91    0.00    0.00  210.81
     17   2   I-Bh-Tv-   .469E-03   82.95  120.00    0.07    0.00    0.00    0.00    0.21 1167.26  215.56    0.00  263.54    0.62    0.00    7.47    0.00    0.00  215.37
     18   2   I-Bh-Tv-   .263E-01   82.95  120.00   11.29    0.00    0.00    0.00    0.21 1167.26  308.96  175.12  408.17  908.64    0.36   48.88    0.00    0.00  308.96
     19   2   I-Bh-Tv-   .427E-01   82.95  120.00   13.62    0.00    0.00    0.00    0.21 1167.26  307.55  198.14  408.10 1157.12    0.41   49.03    0.00    0.00  307.55
     20   2   I-Bh-Tv-   .106E+00   82.95  120.00   13.28    0.00    0.00    0.00    0.21 1167.26  307.76  194.79  408.11 1258.16    0.40   49.08    0.00    0.00  307.76
     21   2   I-Bh-Tv-   .469E-03   82.95  120.00    0.07    0.00    0.00    0.00    0.21 1167.26  319.41    0.00  408.67    0.98    0.00   11.02    0.00    0.00  318.93
     22   2   I-Bh-Tv-   .119E+00   82.95  120.00   10.08    0.00    0.00    0.00    0.21 1167.26  309.67  163.04  408.20  972.65    0.33   48.93    0.00    0.00  309.67
     23   2   I-Bh-Tv-   .781E-03   82.95  120.00    0.07    0.00    0.00    0.00    0.21 1167.26  319.41    0.00  408.67    1.06    0.00   11.68    0.00    0.00  318.93
     24   2   I-Bh-Tv-   .205E-01   82.95  120.00    5.63    0.00    0.00    0.00    0.21 1167.26  312.55  115.00  408.46  443.45    0.23   48.19    0.00    0.00  312.55
     25   2   I-Bh-Tv-   .313E-03   82.95  120.00    0.07    0.00    0.00    0.00    0.21 1167.26  319.40    0.00  408.78    0.92    0.00   10.46    0.00    0.00  318.92
     26   2   I-Bh-Tv-   .122E-01   82.95  120.00   17.62    0.00    0.00    0.00    0.21 1167.26  305.09  238.31  408.08 1280.94    0.50   49.09    0.00    0.00  305.09
     27   2   I-Bh-Tv-   .461E-01   82.95  120.00   11.93    0.00    0.00    0.00    0.21 1167.26  308.57  181.48  408.15 1025.81    0.37   48.96    0.00    0.00  308.57
     28   2   I-Bh-Tv-   .208E-01   82.95  120.00    6.75    0.00    0.00    0.00    0.21 1167.26  311.79  127.89  408.31  531.71    0.25   48.40    0.00    0.00  311.79
     29   2   I-Bh-Tv-   .109E-02   82.95  120.00    4.19    0.00    0.00    0.00    0.21 1167.26  313.65   96.94  408.40  232.61    0.19   47.25    0.00    0.00  313.65
     30   3   I-Bh-Tv-   .816E-01   82.95  120.00   16.18    0.00    0.00    0.00    0.21 1143.91  621.75 1559.99  447.52 2755.53    0.43   49.33    0.00    0.00  621.75
     31   3   I-Bh-Tv-   .603E-01   82.95  120.00   15.31    0.00    0.00    0.00    0.21 1143.91  622.92 1558.13  447.54 2519.85    0.41   49.33    0.00    0.00  622.92
     32   3   I-Bh-Tv-   .989E-01   82.95  120.00   14.52    0.00    0.00    0.00    0.21 1143.91  623.96 1556.46  447.56 2537.49    0.39   49.33    0.00    0.00  623.96
     33   3   I-Bh-Tv-   .451E+00   82.95  120.00   14.39    0.00    0.00    0.00    0.21 1143.91  212.93  611.48  272.38 1165.52    0.40   48.88    0.00    0.00  212.93
     34   3   I-Bh-Tv-   .156E-02   82.95  120.00    0.07    0.00    0.00    0.00    0.21 1143.91  219.56  598.40  272.26    0.76    0.00    8.85    0.00    0.00  219.37
     35   3   I-Bh-Tv-   .142E+00   82.95  120.00   10.22    0.00    0.00    0.00    0.21 1143.91  629.55 1547.15  447.83 1875.83    0.30   49.33    0.00    0.00  629.55
     36   3   I-Bh-Tv-   .469E-03   82.95  120.00    0.07    0.00    0.00    0.00    0.21 1143.91  650.83 1512.90  448.17    2.22    0.00   20.25    0.00    0.00  649.68
     37   3   I-Bh-Tv-   .161E+00   82.95  120.00    7.60    0.00    0.00    0.00    0.21 1143.91  633.12 1541.45  447.88 1421.83    0.24   49.33    0.00    0.00  633.12
     38   3   I-Bh-Tv-   .155E-01   82.95  120.00   13.64    0.00    0.00    0.00    0.21 1143.91  205.80  538.42  333.48  713.63    0.37   48.28    0.00    0.00  205.80
     39   3   I-Bh-Tv-   .156E-03   82.95  120.00    0.07    0.00    0.00    0.00    0.21 1143.91  212.51  525.54  333.52    0.50    0.00    6.13    0.00    0.00  212.36
     40   3   I-Bh-Tv-   .402E-01   82.95  120.00   16.88    0.00    0.00    0.00    0.21 1143.91  620.80 1561.51  447.50 2640.79    0.44   49.33    0.00    0.00  620.80
     41   3   I-Bh-Tv-   .891E-02   82.95  120.00    8.09    0.00    0.00    0.00    0.21 1143.91  632.49 1542.91  447.72 1073.52    0.25   49.32    0.00    0.00  632.49
     42   3   I-Bh-Tv-   .370E-01   82.95  120.00    0.07    0.00    0.00    0.00    0.21 1143.91    0.00    0.00  639.34    0.00    0.00    0.00    0.00    0.00    0.00
     43   3   I-Bh-Tv-   .105E+00   82.95  120.00    9.58    0.00    0.00    0.00    0.21 1143.91  630.41 1545.80  447.84 1700.01    0.28   49.33    0.00    0.00  630.41
     44   3   I-Bh-Tv-   .625E-03   82.95  120.00    0.07    0.00    0.00    0.00    0.21 1143.91  650.84 1512.91  448.16    2.31    0.00   20.74    0.00    0.00  649.69
     45   3   I-Bh-Tv-   .111E+00   82.95  120.00    7.31    0.00    0.00    0.00    0.21 1143.91  633.59 1541.14  447.73 1311.20    0.23   49.33    0.00    0.00  633.59
     46   3   I-Bh-Tv-   .625E-03   82.95  120.00    0.07    0.00    0.00    0.00    0.21 1143.91  650.90 1513.24  448.00    2.31    0.00   20.74    0.00    0.00  649.75
     47   3   I-Bh-Tv-   .556E-01   82.95  120.00    4.61    0.00    0.00    0.00    0.21 1143.91  637.71 1534.54  447.80  765.84    0.17   49.29    0.00    0.00  637.71
     48   3   I-Bh-Tv-   .359E-02   82.95  120.00    0.07    0.00    0.00    0.00    0.21 1143.91  650.90 1513.24  448.00    2.86    0.00   23.60    0.00    0.00  649.75
     49   3   I-Bh-Tv-   .172E-02   82.95  120.00    4.52    0.00    0.00    0.00    0.21 1143.91  420.61 1134.48  354.65  343.67    0.17   49.17    0.00    0.00  420.61



                AVE MONTHLY BASIN VALUES
                   SNOW                      WATER               SED
  MON     RAIN     FALL   SURF Q    LAT Q    YIELD       ET    YIELD      PET
          (MM)     (MM)     (MM)     (MM)     (MM)     (MM)   (T/HA)     (MM)
    1   223.27    14.61    74.13    19.23   159.99    14.62   237.66    15.36
    2   239.11    23.71    87.65    20.66   186.00    14.32   318.03    15.37
    3   155.91    17.79    29.38    20.54   143.31    28.30    94.27    31.52
    4    80.73     3.54    10.91    14.65   114.17    36.87    39.39    41.81
    5    19.94     1.46     0.08     7.93    87.57    40.81     0.26    66.38
    6    12.09     3.02     0.00     3.05    60.42    31.23     0.00    69.85
    7     9.93     2.94     0.00     1.23    42.47    29.01     0.00    76.00
    8    18.21     3.19     0.21     1.05    29.86    26.76     0.81    55.73
    9    29.55     1.96     3.91     2.42    31.24    24.24    14.98    42.91
   10    75.33     7.20    11.33     5.05    44.87    26.70    37.95    32.43
   11   116.67    14.23    28.70     9.33    72.84    20.48    88.06    22.46
   12   152.48    12.00    47.58    13.66   110.26    14.94   150.48    16.33

     AVE ANNUAL BASIN STRESS DAYS
               WATER STRESS DAYS =     2.66
               TEMPERATURE STRESS DAYS =    55.63
               NITROGEN STRESS DAYS =     0.00
               PHOSPHORUS STRESS DAYS =     0.00
               AERATION STRESS DAYS =     0.00
1
    SWAT Dec 23 2016    VER 2016/Rev 664                                            

    General Input/Output section (file.cio):                                        
    5/31/2025 12:00:00 AM ARCGIS-SWAT interface AV                                  
                                                                                    
         AVE ANNUAL BASIN VALUES

              PRECIP =   1097.7 MM
              SNOW FALL =  102.86 MM
              SNOW MELT =    97.02 MM
              SUBLIMATION =     3.28 MM
              SURFACE RUNOFF Q =   280.12 MM
              LATERAL SOIL Q =  116.11 MM
              TILE Q =     0.00 MM
              GROUNDWATER (SHAL AQ) Q =   255.44 MM
              GROUNDWATER (DEEP AQ) Q =   411.98 MM
              REVAP (SHAL AQ => SOIL/PLANTS) =   13.63 MM
              DEEP AQ RECHARGE =   417.71 MM
              TOTAL AQ RECHARGE =  678.63 MM
              TOTAL WATER YLD =  1063.65 MM
              PERCOLATION OUT OF SOIL =  684.23 MM
              ET =    311.8 MM
              PET =    494.6MM
              TRANSMISSION LOSSES =     0.00 MM
              SEPTIC INFLOW =       0.00 MM
              TOTAL SEDIMENT LOADING =    935.82 T/HA
              TILE FROM IMPOUNDED WATER =     0.000 (MM)
              EVAPORATION FROM IMPOUNDED WATER =     0.000 (MM)
              SEEPAGE INTO SOIL FROM IMPOUNDED WATER =    0.000 (MM)
              OVERFLOW FROM IMPOUNDED WATER =    0.000 (MM)
1
    SWAT Dec 23 2016    VER 2016/Rev 664                                            

    General Input/Output section (file.cio):                                        
    5/31/2025 12:00:00 AM ARCGIS-SWAT interface AV                                  
                                                                                    
              AVE ANNUAL BASIN VALUES


              NUTRIENTS
                   ORGANIC N =    46.185 (KG/HA)
                   ORGANIC P =     5.655 (KG/HA)
                   NO3 YIELD (SQ) =     0.003 (KG/HA)
                   NO3 YIELD (LAT) =    0.290 (KG/HA)
                   NO3 YIELD (TILE) =    0.000 (KG/HA)
                   SOLP YIELD (TILE) =    0.000(KG/HA)
                   SOLP YIELD (SURF INLET RISER) =    0.000 (KG/HA)
                   SOL P YIELD =    0.004 (KG/HA)
                   NO3 LEACHED =     8.150 (KG/HA)
                   P LEACHED =     0.286 (KG/HA)
                   N UPTAKE =     0.003 (KG/HA)
                   P UPTAKE =    0.000 (KG/HA)
                   NO3 YIELD (GWQ) =     0.037 (KG/HA)
                   ACTIVE TO SOLUTION P FLOW =         1.569 (KG/HA)
                   ACTIVE TO STABLE P FLOW =         3.844 (KG/HA)
                   N FERTILIZER APPLIED =     0.000 (KG/HA)
                   P FERTILIZER APPLIED =     0.000 (KG/HA)
                   N FIXATION =     0.000 (KG/HA)
                   DENITRIFICATION =     2.030 (KG/HA)
                   HUMUS MIN ON ACTIVE ORG N =     7.842 (KG/HA)
                   ACTIVE TO STABLE ORG N =    -4.148 (KG/HA)
                   HUMUS MIN ON ACTIVE ORG P =    1.343 (KG/HA)
                   MIN FROM FRESH ORG N =    0.001 (KG/HA)
                   MIN FROM FRESH ORG P =    0.000 (KG/HA)
                   NO3 IN RAINFALL =     0.000 (KG/HA)
                   INITIAL NO3 IN SOIL =      35.560 (KG/HA)
                   FINAL NO3 IN SOIL =         4.079 (KG/HA)
                   INITIAL ORG N IN SOIL =   12600.001 (KG/HA)
                   FINAL ORG N IN SOIL =     12075.848 (KG/HA)
                   INITIAL MIN P IN SOIL =    1789.938 (KG/HA)
                   FINAL MIN P IN SOIL =      1753.092 (KG/HA)
                   INITIAL ORG P IN SOIL =    1543.500 (KG/HA)
                   FINAL ORG P IN SOIL =    1475.621 (KG/HA)
                   NO3 IN FERT =     0.000 (KG/HA)
                   AMMONIA IN FERT =     0.000 (KG/HA)
                   ORG N IN FERT =     0.000 (KG/HA)
                   MINERAL P IN FERT =     0.000 (KG/HA)
                   ORG P IN FERT =     0.000 (KG/HA)
                   N REMOVED IN YIELD =     0.000 (KG/HA)
                   P REMOVED IN YIELD =     0.000 (KG/HA)
                   AMMONIA VOLATILIZATION =     0.000 (KG/HA)
                   AMMONIA NITRIFICATION =      0.000 (KG/HA)
                   NO3 EVAP-LAYER 2 TO 1 =    0.511

                   DIE-GRO P Q =           0.0 (No/M2)
                   DIE-GRO LP Q =           0.0 (No/M2)
                   DIE-GRO P SED =          0.0 (No/M2)
                   DIE-GRO LP SED =          0.0 (No/M2)
                   BACT P RUNOFF =          0.0 (No/M2)
                   BACT LP RUNOFF =          0.0 (No/M2)
                   BACT P SEDIMENT =          0.0 (No/M2)
                   BACT LP SEDIMENT =          0.0 (No/M2)
                   BACT P INCORP =          0.0 (No/M2)
                   BACT LP INCORP =          0.0 (No/M2)

                   NITRATE SEPTIC =         0.00 (kg/ha)
                   AMMONIA SEPTIC =         0.00 (kg/ha)
                   ORG N SEPTIC =         0.00 (kg/ha)
                   FRESH ORGN SEPTIC =         0.00 (kg/ha)
                   ORG P SEPTIC =         0.00 (kg/ha)
                   FRESH ORGP SEPTIC =         0.00 (kg/ha)
                   SOL P SEPTIC =         0.00 (kg/ha)
                   BOD SEPTIC =         0.00 (kg/ha)
