1
    SWAT Nov 14  VER 2023/Rev 692                                                                        0/ 0/   0      0: 0: 0

    General Input/Output section (file.cio):                                        
    5/19/2025 12:00:00 AM ARCGIS-SWAT interface AV                                  
                                                                                    


       RCH      GIS   MON     AREAkm2  FLOW_INcms FLOW_OUTcms     EVAPcms    TLOSScms  SED_INtons SED_OUTtons SEDCONCmg/L   ORGN_INkg  ORGN_OUTkg   ORGP_INkg  ORGP_OUTkg    NO3_INkg   NO3_OUTkg    NH4_INkg   NH4_OUTkg    NO2_INkg   NO2_OUTkg   MINP_INkg  MINP_OUTkg   CHLA_INkg  CHLA_OUTkg   CBOD_INkg  CBOD_OUTkg  DISOX_INkg DISOX_OUTkg SOLPST_INmgSOLPST_OUTmg SORPST_INmgSORPST_OUTmg  REACTPSTmg    VOLPSTmg  SETTLPSTmgRESUSP_PSTmgDIFFUSEPSTmgREACBEDPSTmg   BURYPSTmg   BED_PSTmg BACTP_OUTctBACTLP_OUTct  CMETAL#1kg  CMETAL#2kg  CMETAL#3kg     TOT Nkg     TOT Pkg NO3ConcMg/l    WTMPdegc     Salt1       Salt2       Salt3       Salt4       Salt5       Salt6       Salt7       Salt8       Salt9       Salt10       SAR           EC  
REACH    1        0     4  0.5790E+01  0.4092E-04  0.1270E-04  0.2822E-04  0.0000E+00  0.6403E-07  0.0000E+00  0.0000E+00  0.2120E-05  0.2786E-06  0.6223E-05  0.7096E-06  0.6248E-01  0.1940E-01  0.3036E-03  0.3573E-03  0.0000E+00  0.3229E-04  0.3297E-05  0.2483E-05  0.4137E-10  0.0000E+00  0.0000E+00  0.0000E+00  0.4101E+00  0.1264E+00  0.0000E+00  0.0000E+00  0.0000E+00  0.0000E+00  0.0000E+00  0.0000E+00  0.0000E+00  0.0000E+00  0.0000E+00  0.0000E+00  0.0000E+00  0.0000E+00  0.0000E+00  0.0000E+00  0.0000E+00  0.0000E+00  0.0000E+00  0.1979E-01  0.3192E-05  0.0000E+00  0.0000E+00  0.0000E+00  0.0000E+00  0.0000E+00  0.0000E+00  0.0000E+00  0.0000E+00  0.0000E+00  0.0000E+00  0.0000E+00  0.0000E+00  0.0000E+00  0.0000E+00
REACH    2        0     4  0.2233E+01  0.2429E-04  0.6126E-05  0.1816E-04  0.0000E+00  0.3199E-07  0.6398E-08  0.3339E-03  0.2105E-05  0.1977E-06  0.6314E-05  0.5342E-06  0.3709E-01  0.9359E-02  0.0000E+00  0.1179E-03  0.0000E+00  0.0000E+00  0.2107E-05  0.7090E-06  0.6462E-10  0.0000E+00  0.0000E+00  0.0000E+00  0.2443E+00  0.6104E-01  0.0000E+00  0.0000E+00  0.0000E+00  0.0000E+00  0.0000E+00  0.0000E+00  0.0000E+00  0.0000E+00  0.0000E+00  0.0000E+00  0.0000E+00  0.0000E+00  0.0000E+00  0.0000E+00  0.0000E+00  0.0000E+00  0.0000E+00  0.9477E-02  0.1243E-05  0.0000E+00  0.0000E+00  0.0000E+00  0.0000E+00  0.0000E+00  0.0000E+00  0.0000E+00  0.0000E+00  0.0000E+00  0.0000E+00  0.0000E+00  0.0000E+00  0.0000E+00  0.0000E+00
REACH    3        0     4  0.1834E+01  0.2615E-04  0.9638E-05  0.1651E-04  0.0000E+00  0.8540E-07  0.2562E-07  0.1360E-02  0.1807E-05  0.2569E-06  0.5421E-05  0.6942E-06  0.3995E-01  0.1473E-01  0.0000E+00  0.1857E-03  0.0000E+00  0.0000E+00  0.1809E-05  0.9214E-06  0.4869E-10  0.0000E+00  0.0000E+00  0.0000E+00  0.2630E+00  0.9599E-01  0.0000E+00  0.0000E+00  0.0000E+00  0.0000E+00  0.0000E+00  0.0000E+00  0.0000E+00  0.0000E+00  0.0000E+00  0.0000E+00  0.0000E+00  0.0000E+00  0.0000E+00  0.0000E+00  0.0000E+00  0.0000E+00  0.0000E+00  0.1492E-01  0.1616E-05  0.0000E+00  0.0000E+00  0.0000E+00  0.0000E+00  0.0000E+00  0.0000E+00  0.0000E+00  0.0000E+00  0.0000E+00  0.0000E+00  0.0000E+00  0.0000E+00  0.0000E+00  0.0000E+00
REACH    1        0     5  0.5790E+01  0.4024E-03  0.3462E-03  0.4224E-04  0.0000E+00  0.2551E-06  0.0000E+00  0.0000E+00  0.9279E-05  0.4351E-05  0.2718E-04  0.1198E-04  0.2625E+01  0.2265E+01  0.4596E-02  0.1418E-01  0.2462E-04  0.3737E-03  0.2471E-04  0.1499E-03  0.6418E-09  0.0000E+00  0.0000E+00  0.0000E+00  0.1223E+02  0.1048E+02  0.0000E+00  0.0000E+00  0.0000E+00  0.0000E+00  0.0000E+00  0.0000E+00  0.0000E+00  0.0000E+00  0.0000E+00  0.0000E+00  0.0000E+00  0.0000E+00  0.0000E+00  0.0000E+00  0.0000E+00  0.0000E+00  0.0000E+00  0.2280E+01  0.1619E-03  0.0000E+00  0.0000E+00  0.0000E+00  0.0000E+00  0.0000E+00  0.0000E+00  0.0000E+00  0.0000E+00  0.0000E+00  0.0000E+00  0.0000E+00  0.0000E+00  0.0000E+00  0.0000E+00
REACH    2        0     5  0.2233E+01  0.1417E-03  0.1188E-03  0.1835E-04  0.0000E+00  0.9917E-07  0.1919E-07  0.3450E-02  0.6525E-05  0.2019E-05  0.1957E-04  0.5705E-05  0.9212E+00  0.7757E+00  0.0000E+00  0.1835E-02  0.0000E+00  0.2462E-04  0.6532E-05  0.1265E-04  0.9108E-09  0.0000E+00  0.0000E+00  0.0000E+00  0.4336E+01  0.3596E+01  0.0000E+00  0.0000E+00  0.0000E+00  0.0000E+00  0.0000E+00  0.0000E+00  0.0000E+00  0.0000E+00  0.0000E+00  0.0000E+00  0.0000E+00  0.0000E+00  0.0000E+00  0.0000E+00  0.0000E+00  0.0000E+00  0.0000E+00  0.7776E+00  0.1835E-04  0.0000E+00  0.0000E+00  0.0000E+00  0.0000E+00  0.0000E+00  0.0000E+00  0.0000E+00  0.0000E+00  0.0000E+00  0.0000E+00  0.0000E+00  0.0000E+00  0.0000E+00  0.0000E+00
REACH    3        0     5  0.1834E+01  0.1532E-03  0.1388E-03  0.1437E-04  0.0000E+00  0.2647E-06  0.1366E-06  0.3215E-02  0.5601E-05  0.2099E-05  0.1680E-04  0.5992E-05  0.1001E+01  0.9077E+00  0.0000E+00  0.2761E-02  0.0000E+00  0.0000E+00  0.5607E-05  0.6898E-05  0.7502E-09  0.0000E+00  0.0000E+00  0.0000E+00  0.4689E+01  0.4200E+01  0.0000E+00  0.0000E+00  0.0000E+00  0.0000E+00  0.0000E+00  0.0000E+00  0.0000E+00  0.0000E+00  0.0000E+00  0.0000E+00  0.0000E+00  0.0000E+00  0.0000E+00  0.0000E+00  0.0000E+00  0.0000E+00  0.0000E+00  0.9104E+00  0.1289E-04  0.0000E+00  0.0000E+00  0.0000E+00  0.0000E+00  0.0000E+00  0.0000E+00  0.0000E+00  0.0000E+00  0.0000E+00  0.0000E+00  0.0000E+00  0.0000E+00  0.0000E+00  0.0000E+00
REACH    1        0     6  0.5790E+01  0.5000E-03  0.4100E-03  0.1044E-03  0.0000E+00  0.4098E-06  0.0000E+00  0.0000E+00  0.1165E-04  0.6364E-05  0.3359E-04  0.1687E-04  0.2525E+01  0.2068E+01  0.6511E-02  0.1852E-01  0.1081E-04  0.6256E-03  0.3247E-04  0.4424E-03  0.1003E-09  0.0000E+00  0.0000E+00  0.0000E+00  0.1512E+02  0.1235E+02  0.0000E+00  0.0000E+00  0.0000E+00  0.0000E+00  0.0000E+00  0.0000E+00  0.0000E+00  0.0000E+00  0.0000E+00  0.0000E+00  0.0000E+00  0.0000E+00  0.0000E+00  0.0000E+00  0.0000E+00  0.0000E+00  0.0000E+00  0.2087E+01  0.4592E-03  0.0000E+00  0.0000E+00  0.0000E+00  0.0000E+00  0.0000E+00  0.0000E+00  0.0000E+00  0.0000E+00  0.0000E+00  0.0000E+00  0.0000E+00  0.0000E+00  0.0000E+00  0.0000E+00
REACH    2        0     6  0.2233E+01  0.1799E-03  0.1471E-03  0.3751E-04  0.0000E+00  0.9597E-07  0.5758E-07  0.5954E-03  0.6314E-05  0.3249E-05  0.1894E-04  0.9056E-05  0.9035E+00  0.7373E+00  0.0000E+00  0.2530E-02  0.0000E+00  0.1081E-04  0.6321E-05  0.1596E-04  0.1552E-09  0.0000E+00  0.0000E+00  0.0000E+00  0.5474E+01  0.4435E+01  0.0000E+00  0.0000E+00  0.0000E+00  0.0000E+00  0.0000E+00  0.0000E+00  0.0000E+00  0.0000E+00  0.0000E+00  0.0000E+00  0.0000E+00  0.0000E+00  0.0000E+00  0.0000E+00  0.0000E+00  0.0000E+00  0.0000E+00  0.7398E+00  0.2502E-04  0.0000E+00  0.0000E+00  0.0000E+00  0.0000E+00  0.0000E+00  0.0000E+00  0.0000E+00  0.0000E+00  0.0000E+00  0.0000E+00  0.0000E+00  0.0000E+00  0.0000E+00  0.0000E+00
REACH    3        0     6  0.1834E+01  0.1945E-03  0.1693E-03  0.2526E-04  0.0000E+00  0.2562E-06  0.2562E-06  0.5322E-02  0.5421E-05  0.3402E-05  0.1626E-04  0.9551E-05  0.9900E+00  0.8593E+00  0.0000E+00  0.3981E-02  0.0000E+00  0.0000E+00  0.5426E-05  0.1151E-04  0.1166E-09  0.0000E+00  0.0000E+00  0.0000E+00  0.5919E+01  0.5097E+01  0.0000E+00  0.0000E+00  0.0000E+00  0.0000E+00  0.0000E+00  0.0000E+00  0.0000E+00  0.0000E+00  0.0000E+00  0.0000E+00  0.0000E+00  0.0000E+00  0.0000E+00  0.0000E+00  0.0000E+00  0.0000E+00  0.0000E+00  0.8633E+00  0.2106E-04  0.0000E+00  0.0000E+00  0.0000E+00  0.0000E+00  0.0000E+00  0.0000E+00  0.0000E+00  0.0000E+00  0.0000E+00  0.0000E+00  0.0000E+00  0.0000E+00  0.0000E+00  0.0000E+00
REACH    1        0     7  0.5790E+01  0.4065E-05  0.0000E+00  0.4065E-05  0.0000E+00  0.1078E-06  0.0000E+00  0.0000E+00  0.5200E-05  0.0000E+00  0.1559E-04  0.0000E+00  0.1989E-01  0.0000E+00  0.1319E-04  0.0000E+00  0.0000E+00  0.0000E+00  0.5306E-05  0.0000E+00  0.4729E-09  0.0000E+00  0.0000E+00  0.0000E+00  0.1195E+00  0.0000E+00  0.0000E+00  0.0000E+00  0.0000E+00  0.0000E+00  0.0000E+00  0.0000E+00  0.0000E+00  0.0000E+00  0.0000E+00  0.0000E+00  0.0000E+00  0.0000E+00  0.0000E+00  0.0000E+00  0.0000E+00  0.0000E+00  0.0000E+00  0.0000E+00  0.0000E+00  0.0000E+00  0.0000E+00  0.0000E+00  0.0000E+00  0.0000E+00  0.0000E+00  0.0000E+00  0.0000E+00  0.0000E+00  0.0000E+00  0.0000E+00  0.0000E+00  0.0000E+00  0.0000E+00
REACH    2        0     7  0.2233E+01  0.3769E-05  0.0000E+00  0.3769E-05  0.0000E+00  0.9917E-07  0.0000E+00  0.0000E+00  0.6525E-05  0.0000E+00  0.1957E-04  0.0000E+00  0.1801E-01  0.0000E+00  0.0000E+00  0.0000E+00  0.0000E+00  0.0000E+00  0.6532E-05  0.0000E+00  0.6382E-09  0.0000E+00  0.0000E+00  0.0000E+00  0.1094E+00  0.0000E+00  0.0000E+00  0.0000E+00  0.0000E+00  0.0000E+00  0.0000E+00  0.0000E+00  0.0000E+00  0.0000E+00  0.0000E+00  0.0000E+00  0.0000E+00  0.0000E+00  0.0000E+00  0.0000E+00  0.0000E+00  0.0000E+00  0.0000E+00  0.0000E+00  0.0000E+00  0.0000E+00  0.0000E+00  0.0000E+00  0.0000E+00  0.0000E+00  0.0000E+00  0.0000E+00  0.0000E+00  0.0000E+00  0.0000E+00  0.0000E+00  0.0000E+00  0.0000E+00  0.0000E+00
REACH    3        0     7  0.1834E+01  0.4073E-05  0.2294E-06  0.3843E-05  0.0000E+00  0.2647E-06  0.8540E-08  0.4483E-03  0.5601E-05  0.3887E-07  0.1680E-04  0.1053E-06  0.1990E-01  0.1168E-02  0.0000E+00  0.1319E-04  0.0000E+00  0.0000E+00  0.5607E-05  0.1389E-06  0.5473E-09  0.0000E+00  0.0000E+00  0.0000E+00  0.1193E+00  0.7178E-02  0.0000E+00  0.0000E+00  0.0000E+00  0.0000E+00  0.0000E+00  0.0000E+00  0.0000E+00  0.0000E+00  0.0000E+00  0.0000E+00  0.0000E+00  0.0000E+00  0.0000E+00  0.0000E+00  0.0000E+00  0.0000E+00  0.0000E+00  0.1181E-02  0.2442E-06  0.0000E+00  0.0000E+00  0.0000E+00  0.0000E+00  0.0000E+00  0.0000E+00  0.0000E+00  0.0000E+00  0.0000E+00  0.0000E+00  0.0000E+00  0.0000E+00  0.0000E+00  0.0000E+00
REACH    1        0     8  0.5790E+01  0.1313E-02  0.1238E-02  0.6284E-04  0.0000E+00  0.2892E-06  0.0000E+00  0.0000E+00  0.1134E-04  0.6412E-05  0.3436E-04  0.2139E-04  0.9026E+01  0.8539E+01  0.6009E-02  0.1779E-01  0.2722E-04  0.3791E-03  0.3147E-04  0.1898E-03  0.3114E-10  0.0000E+00  0.0000E+00  0.0000E+00  0.4212E+02  0.3964E+02  0.0000E+00  0.0000E+00  0.0000E+00  0.0000E+00  0.0000E+00  0.0000E+00  0.0000E+00  0.0000E+00  0.0000E+00  0.0000E+00  0.0000E+00  0.0000E+00  0.0000E+00  0.0000E+00  0.0000E+00  0.0000E+00  0.0000E+00  0.8558E+01  0.2112E-03  0.0000E+00  0.0000E+00  0.0000E+00  0.0000E+00  0.0000E+00  0.0000E+00  0.0000E+00  0.0000E+00  0.0000E+00  0.0000E+00  0.0000E+00  0.0000E+00  0.0000E+00  0.0000E+00
REACH    2        0     8  0.2233E+01  0.4361E-03  0.4108E-03  0.2140E-04  0.0000E+00  0.9917E-07  0.1919E-07  0.2063E-03  0.6525E-05  0.3310E-05  0.1957E-04  0.9526E-05  0.2962E+01  0.2799E+01  0.0000E+00  0.2367E-02  0.0000E+00  0.2722E-04  0.6532E-05  0.1704E-04  0.4784E-10  0.0000E+00  0.0000E+00  0.0000E+00  0.1407E+02  0.1314E+02  0.0000E+00  0.0000E+00  0.0000E+00  0.0000E+00  0.0000E+00  0.0000E+00  0.0000E+00  0.0000E+00  0.0000E+00  0.0000E+00  0.0000E+00  0.0000E+00  0.0000E+00  0.0000E+00  0.0000E+00  0.0000E+00  0.0000E+00  0.2801E+01  0.2656E-04  0.0000E+00  0.0000E+00  0.0000E+00  0.0000E+00  0.0000E+00  0.0000E+00  0.0000E+00  0.0000E+00  0.0000E+00  0.0000E+00  0.0000E+00  0.0000E+00  0.0000E+00  0.0000E+00
REACH    3        0     8  0.1834E+01  0.4719E-03  0.4580E-03  0.1392E-04  0.0000E+00  0.2647E-06  0.1708E-06  0.7704E-03  0.5601E-05  0.2870E-05  0.1680E-04  0.9346E-05  0.3274E+01  0.3179E+01  0.0000E+00  0.3642E-02  0.0000E+00  0.0000E+00  0.5607E-05  0.9263E-05  0.3587E-10  0.0000E+00  0.0000E+00  0.0000E+00  0.1522E+02  0.1465E+02  0.0000E+00  0.0000E+00  0.0000E+00  0.0000E+00  0.0000E+00  0.0000E+00  0.0000E+00  0.0000E+00  0.0000E+00  0.0000E+00  0.0000E+00  0.0000E+00  0.0000E+00  0.0000E+00  0.0000E+00  0.0000E+00  0.0000E+00  0.3183E+01  0.1861E-04  0.0000E+00  0.0000E+00  0.0000E+00  0.0000E+00  0.0000E+00  0.0000E+00  0.0000E+00  0.0000E+00  0.0000E+00  0.0000E+00  0.0000E+00  0.0000E+00  0.0000E+00  0.0000E+00
REACH    1        0     9  0.5790E+01  0.2409E-02  0.2318E-02  0.9065E-04  0.0000E+00  0.3389E+01  0.7182E-01  0.4944E+01  0.8216E+01  0.8048E+01  0.1786E+01  0.1740E+01  0.5158E+01  0.4937E+01  0.4279E-01  0.1335E+00  0.5223E-04  0.1029E-02  0.1633E-02  0.5809E-02  0.2600E-02  0.0000E+00  0.7259E+01  0.6616E+01  0.6945E+02  0.6460E+02  0.0000E+00  0.0000E+00  0.0000E+00  0.0000E+00  0.0000E+00  0.0000E+00  0.0000E+00  0.0000E+00  0.0000E+00  0.0000E+00  0.0000E+00  0.0000E+00  0.0000E+00  0.0000E+00  0.0000E+00  0.0000E+00  0.0000E+00  0.1312E+02  0.1746E+01  0.0000E+00  0.0000E+00  0.0000E+00  0.0000E+00  0.0000E+00  0.0000E+00  0.0000E+00  0.0000E+00  0.0000E+00  0.0000E+00  0.0000E+00  0.0000E+00  0.0000E+00  0.0000E+00
REACH    2        0     9  0.2233E+01  0.7936E-03  0.7638E-03  0.2969E-04  0.0000E+00  0.1157E+01  0.1092E+01  0.1364E+03  0.2898E+01  0.2841E+01  0.6317E+00  0.6160E+00  0.1663E+01  0.1593E+01  0.0000E+00  0.2478E-01  0.0000E+00  0.4780E-04  0.2647E-03  0.9161E-03  0.3729E-02  0.0000E+00  0.3362E+01  0.3073E+01  0.2425E+02  0.2089E+02  0.0000E+00  0.0000E+00  0.0000E+00  0.0000E+00  0.0000E+00  0.0000E+00  0.0000E+00  0.0000E+00  0.0000E+00  0.0000E+00  0.0000E+00  0.0000E+00  0.0000E+00  0.0000E+00  0.0000E+00  0.0000E+00  0.0000E+00  0.4459E+01  0.6169E+00  0.0000E+00  0.0000E+00  0.0000E+00  0.0000E+00  0.0000E+00  0.0000E+00  0.0000E+00  0.0000E+00  0.0000E+00  0.0000E+00  0.0000E+00  0.0000E+00  0.0000E+00  0.0000E+00
REACH    3        0     9  0.1834E+01  0.8571E-03  0.8381E-03  0.1897E-04  0.0000E+00  0.1077E+01  0.1039E+01  0.1249E+03  0.2530E+01  0.2500E+01  0.5515E+00  0.5432E+00  0.1871E+01  0.1815E+01  0.0000E+00  0.1801E-01  0.0000E+00  0.4430E-05  0.1663E-03  0.5342E-03  0.2004E-02  0.0000E+00  0.1883E+01  0.1783E+01  0.2623E+02  0.2386E+02  0.0000E+00  0.0000E+00  0.0000E+00  0.0000E+00  0.0000E+00  0.0000E+00  0.0000E+00  0.0000E+00  0.0000E+00  0.0000E+00  0.0000E+00  0.0000E+00  0.0000E+00  0.0000E+00  0.0000E+00  0.0000E+00  0.0000E+00  0.4333E+01  0.5437E+00  0.0000E+00  0.0000E+00  0.0000E+00  0.0000E+00  0.0000E+00  0.0000E+00  0.0000E+00  0.0000E+00  0.0000E+00  0.0000E+00  0.0000E+00  0.0000E+00  0.0000E+00  0.0000E+00
REACH    1        0    10  0.5790E+01  0.9248E-02  0.9182E-02  0.6005E-04  0.0000E+00  0.9804E+03  0.1404E+01  0.2939E+02  0.2408E+04  0.2394E+04  0.5242E+03  0.5199E+03  0.1662E+02  0.1635E+02  0.1484E+01  0.4691E+01  0.1543E-03  0.1637E-02  0.2495E+00  0.7881E+00  0.2218E+02  0.2120E+00  0.3776E+05  0.3645E+05  0.1887E+03  0.1379E+03  0.0000E+00  0.0000E+00  0.0000E+00  0.0000E+00  0.0000E+00  0.0000E+00  0.0000E+00  0.0000E+00  0.0000E+00  0.0000E+00  0.0000E+00  0.0000E+00  0.0000E+00  0.0000E+00  0.0000E+00  0.0000E+00  0.0000E+00  0.2415E+04  0.5207E+03  0.0000E+00  0.0000E+00  0.0000E+00  0.0000E+00  0.0000E+00  0.0000E+00  0.0000E+00  0.0000E+00  0.0000E+00  0.0000E+00  0.0000E+00  0.0000E+00  0.0000E+00  0.0000E+00
REACH    2        0    10  0.2233E+01  0.3132E-02  0.3110E-02  0.1963E-04  0.0000E+00  0.2993E+03  0.2922E+03  0.7502E+04  0.7703E+03  0.7669E+03  0.1679E+03  0.1668E+03  0.6070E+01  0.5928E+01  0.0000E+00  0.1540E+00  0.0000E+00  0.5088E-04  0.3979E-01  0.1239E+00  0.1561E+02  0.1504E+01  0.1284E+05  0.1244E+05  0.8624E+02  0.4907E+02  0.0000E+00  0.0000E+00  0.0000E+00  0.0000E+00  0.0000E+00  0.0000E+00  0.0000E+00  0.0000E+00  0.0000E+00  0.0000E+00  0.0000E+00  0.0000E+00  0.0000E+00  0.0000E+00  0.0000E+00  0.0000E+00  0.0000E+00  0.7729E+03  0.1669E+03  0.0000E+00  0.0000E+00  0.0000E+00  0.0000E+00  0.0000E+00  0.0000E+00  0.0000E+00  0.0000E+00  0.0000E+00  0.0000E+00  0.0000E+00  0.0000E+00  0.0000E+00  0.0000E+00
REACH    3        0    10  0.1834E+01  0.3171E-02  0.3155E-02  0.1256E-04  0.0000E+00  0.3457E+03  0.3400E+03  0.7881E+04  0.8288E+03  0.8260E+03  0.1806E+03  0.1797E+03  0.5610E+01  0.5512E+01  0.0000E+00  0.1330E+01  0.0000E+00  0.1034E-03  0.3095E-01  0.9603E-01  0.1562E+02  0.5500E+01  0.1298E+05  0.1270E+05  0.9029E+02  0.5489E+02  0.0000E+00  0.0000E+00  0.0000E+00  0.0000E+00  0.0000E+00  0.0000E+00  0.0000E+00  0.0000E+00  0.0000E+00  0.0000E+00  0.0000E+00  0.0000E+00  0.0000E+00  0.0000E+00  0.0000E+00  0.0000E+00  0.0000E+00  0.8328E+03  0.1798E+03  0.0000E+00  0.0000E+00  0.0000E+00  0.0000E+00  0.0000E+00  0.0000E+00  0.0000E+00  0.0000E+00  0.0000E+00  0.0000E+00  0.0000E+00  0.0000E+00  0.0000E+00  0.0000E+00
REACH    1        0    11  0.5790E+01  0.7735E-01  0.7729E-01  0.3972E-04  0.0000E+00  0.3019E+05  0.3503E+02  0.1148E+03  0.5008E+05  0.4999E+05  0.1092E+05  0.1089E+05  0.2497E+03  0.2457E+03  0.1081E+02  0.3306E+02  0.2486E-03  0.1149E-01  0.5640E+01  0.1718E+02  0.1285E+04  0.1031E+04  0.1695E+07  0.1675E+07  0.5638E+03  0.1415E+03  0.0000E+00  0.0000E+00  0.0000E+00  0.0000E+00  0.0000E+00  0.0000E+00  0.0000E+00  0.0000E+00  0.0000E+00  0.0000E+00  0.0000E+00  0.0000E+00  0.0000E+00  0.0000E+00  0.0000E+00  0.0000E+00  0.0000E+00  0.5027E+05  0.1091E+05  0.0000E+00  0.0000E+00  0.0000E+00  0.0000E+00  0.0000E+00  0.0000E+00  0.0000E+00  0.0000E+00  0.0000E+00  0.0000E+00  0.0000E+00  0.0000E+00  0.0000E+00  0.0000E+00
REACH    2        0    11  0.2233E+01  0.2781E-01  0.2779E-01  0.1307E-04  0.0000E+00  0.8993E+04  0.8922E+04  0.4008E+05  0.1631E+05  0.1628E+05  0.3556E+04  0.3549E+04  0.8487E+02  0.8386E+02  0.0000E+00  0.4672E+01  0.0000E+00  0.1890E-03  0.9186E+00  0.2782E+01  0.4830E+03  0.3883E+03  0.5468E+06  0.5415E+06  0.4416E+03  0.6694E+02  0.0000E+00  0.0000E+00  0.0000E+00  0.0000E+00  0.0000E+00  0.0000E+00  0.0000E+00  0.0000E+00  0.0000E+00  0.0000E+00  0.0000E+00  0.0000E+00  0.0000E+00  0.0000E+00  0.0000E+00  0.0000E+00  0.0000E+00  0.1637E+05  0.3552E+04  0.0000E+00  0.0000E+00  0.0000E+00  0.0000E+00  0.0000E+00  0.0000E+00  0.0000E+00  0.0000E+00  0.0000E+00  0.0000E+00  0.0000E+00  0.0000E+00  0.0000E+00  0.0000E+00
REACH    3        0    11  0.1834E+01  0.2559E-01  0.2557E-01  0.8386E-05  0.0000E+00  0.1070E+05  0.1063E+05  0.4637E+05  0.1730E+05  0.1728E+05  0.3774E+04  0.3768E+04  0.8623E+02  0.8548E+02  0.0000E+00  0.6137E+01  0.0000E+00  0.5955E-04  0.7194E+00  0.2185E+01  0.4959E+03  0.4276E+03  0.5894E+06  0.5851E+06  0.4469E+03  0.7668E+02  0.0000E+00  0.0000E+00  0.0000E+00  0.0000E+00  0.0000E+00  0.0000E+00  0.0000E+00  0.0000E+00  0.0000E+00  0.0000E+00  0.0000E+00  0.0000E+00  0.0000E+00  0.0000E+00  0.0000E+00  0.0000E+00  0.0000E+00  0.1737E+05  0.3771E+04  0.0000E+00  0.0000E+00  0.0000E+00  0.0000E+00  0.0000E+00  0.0000E+00  0.0000E+00  0.0000E+00  0.0000E+00  0.0000E+00  0.0000E+00  0.0000E+00  0.0000E+00  0.0000E+00
REACH    1        0    12  0.5790E+01  0.1900E+00  0.1899E+00  0.3671E-04  0.0000E+00  0.8312E+05  0.1340E+03  0.1797E+03  0.4985E+05  0.4979E+05  0.1099E+05  0.1097E+05  0.3981E+03  0.3958E+03  0.1633E+02  0.4963E+02  0.2499E-03  0.1055E-01  0.8013E+01  0.2168E+02  0.1520E+04  0.1358E+04  0.4840E+07  0.4790E+07  0.9670E+03  0.1681E+03  0.0000E+00  0.0000E+00  0.0000E+00  0.0000E+00  0.0000E+00  0.0000E+00  0.0000E+00  0.0000E+00  0.0000E+00  0.0000E+00  0.0000E+00  0.0000E+00  0.0000E+00  0.0000E+00  0.0000E+00  0.0000E+00  0.0000E+00  0.5023E+05  0.1099E+05  0.0000E+00  0.0000E+00  0.0000E+00  0.0000E+00  0.0000E+00  0.0000E+00  0.0000E+00  0.0000E+00  0.0000E+00  0.0000E+00  0.0000E+00  0.0000E+00  0.0000E+00  0.0000E+00
REACH    2        0    12  0.2233E+01  0.6935E-01  0.6932E-01  0.1217E-04  0.0000E+00  0.2454E+05  0.2440E+05  0.5271E+05  0.1939E+05  0.1937E+05  0.4267E+04  0.4260E+04  0.1314E+03  0.1307E+03  0.0000E+00  0.9284E+01  0.0000E+00  0.1861E-03  0.1519E+01  0.4414E+01  0.6344E+03  0.5705E+03  0.1542E+07  0.1530E+07  0.8283E+03  0.8693E+02  0.0000E+00  0.0000E+00  0.0000E+00  0.0000E+00  0.0000E+00  0.0000E+00  0.0000E+00  0.0000E+00  0.0000E+00  0.0000E+00  0.0000E+00  0.0000E+00  0.0000E+00  0.0000E+00  0.0000E+00  0.0000E+00  0.0000E+00  0.1951E+05  0.4264E+04  0.0000E+00  0.0000E+00  0.0000E+00  0.0000E+00  0.0000E+00  0.0000E+00  0.0000E+00  0.0000E+00  0.0000E+00  0.0000E+00  0.0000E+00  0.0000E+00  0.0000E+00  0.0000E+00
REACH    3        0    12  0.1834E+01  0.6228E-01  0.6226E-01  0.7834E-05  0.0000E+00  0.2950E+05  0.2937E+05  0.6031E+05  0.1630E+05  0.1628E+05  0.3596E+04  0.3592E+04  0.1386E+03  0.1382E+03  0.0000E+00  0.7042E+01  0.0000E+00  0.6378E-04  0.9361E+00  0.2721E+01  0.5269E+03  0.4902E+03  0.1689E+07  0.1679E+07  0.8308E+03  0.9573E+02  0.0000E+00  0.0000E+00  0.0000E+00  0.0000E+00  0.0000E+00  0.0000E+00  0.0000E+00  0.0000E+00  0.0000E+00  0.0000E+00  0.0000E+00  0.0000E+00  0.0000E+00  0.0000E+00  0.0000E+00  0.0000E+00  0.0000E+00  0.1643E+05  0.3595E+04  0.0000E+00  0.0000E+00  0.0000E+00  0.0000E+00  0.0000E+00  0.0000E+00  0.0000E+00  0.0000E+00  0.0000E+00  0.0000E+00  0.0000E+00  0.0000E+00  0.0000E+00  0.0000E+00
REACH    1        0  1981  0.5790E+01  0.3388E-01  0.3381E-01  0.5375E-04  0.0000E+00  0.1143E+06  0.1705E+03  0.3950E+02  0.1023E+06  0.1022E+06  0.2243E+05  0.2238E+05  0.6838E+03  0.6756E+03  0.2868E+02  0.8756E+02  0.7677E-03  0.2612E-01  0.1390E+02  0.3965E+02  0.2828E+04  0.2389E+04  0.6573E+07  0.6502E+07  0.1859E+04  0.5747E+03  0.0000E+00  0.0000E+00  0.0000E+00  0.0000E+00  0.0000E+00  0.0000E+00  0.0000E+00  0.0000E+00  0.0000E+00  0.0000E+00  0.0000E+00  0.0000E+00  0.0000E+00  0.0000E+00  0.0000E+00  0.0000E+00  0.0000E+00  0.1029E+06  0.2242E+05  0.0000E+00  0.0000E+00  0.0000E+00  0.0000E+00  0.0000E+00  0.0000E+00  0.0000E+00  0.0000E+00  0.0000E+00  0.0000E+00  0.0000E+00  0.0000E+00  0.0000E+00  0.0000E+00
REACH    2        0  1981  0.2233E+01  0.1227E-01  0.1225E-01  0.1931E-04  0.0000E+00  0.3384E+05  0.3362E+05  0.1205E+05  0.3647E+05  0.3643E+05  0.7991E+04  0.7976E+04  0.2288E+03  0.2264E+03  0.0000E+00  0.1414E+02  0.0000E+00  0.5365E-03  0.2478E+01  0.7322E+01  0.1133E+04  0.9603E+03  0.2102E+07  0.2084E+07  0.1405E+04  0.2451E+03  0.0000E+00  0.0000E+00  0.0000E+00  0.0000E+00  0.0000E+00  0.0000E+00  0.0000E+00  0.0000E+00  0.0000E+00  0.0000E+00  0.0000E+00  0.0000E+00  0.0000E+00  0.0000E+00  0.0000E+00  0.0000E+00  0.0000E+00  0.3667E+05  0.7984E+04  0.0000E+00  0.0000E+00  0.0000E+00  0.0000E+00  0.0000E+00  0.0000E+00  0.0000E+00  0.0000E+00  0.0000E+00  0.0000E+00  0.0000E+00  0.0000E+00  0.0000E+00  0.0000E+00
REACH    3        0  1981  0.1834E+01  0.1117E-01  0.1115E-01  0.1322E-04  0.0000E+00  0.4054E+05  0.4034E+05  0.1376E+05  0.3443E+05  0.3440E+05  0.7552E+04  0.7541E+04  0.2376E+03  0.2360E+03  0.0000E+00  0.1454E+02  0.0000E+00  0.2312E-03  0.1687E+01  0.5002E+01  0.1038E+04  0.9233E+03  0.2292E+07  0.2277E+07  0.1420E+04  0.2752E+03  0.0000E+00  0.0000E+00  0.0000E+00  0.0000E+00  0.0000E+00  0.0000E+00  0.0000E+00  0.0000E+00  0.0000E+00  0.0000E+00  0.0000E+00  0.0000E+00  0.0000E+00  0.0000E+00  0.0000E+00  0.0000E+00  0.0000E+00  0.3465E+05  0.7546E+04  0.0000E+00  0.0000E+00  0.0000E+00  0.0000E+00  0.0000E+00  0.0000E+00  0.0000E+00  0.0000E+00  0.0000E+00  0.0000E+00  0.0000E+00  0.0000E+00  0.0000E+00  0.0000E+00
REACH    1        0     1  0.5790E+01  0.2371E+00  0.2371E+00  0.2703E-04  0.0000E+00  0.8739E+05  0.1617E+03  0.1972E+03  0.1939E+05  0.1937E+05  0.4289E+04  0.4281E+04  0.3065E+03  0.3061E+03  0.5351E+01  0.1630E+02  0.5527E-04  0.5631E-02  0.4222E+01  0.1067E+02  0.4811E+03  0.4207E+03  0.4644E+07  0.4603E+07  0.1554E+04  0.2894E+03  0.0000E+00  0.0000E+00  0.0000E+00  0.0000E+00  0.0000E+00  0.0000E+00  0.0000E+00  0.0000E+00  0.0000E+00  0.0000E+00  0.0000E+00  0.0000E+00  0.0000E+00  0.0000E+00  0.0000E+00  0.0000E+00  0.0000E+00  0.1970E+05  0.4292E+04  0.0000E+00  0.0000E+00  0.0000E+00  0.0000E+00  0.0000E+00  0.0000E+00  0.0000E+00  0.0000E+00  0.0000E+00  0.0000E+00  0.0000E+00  0.0000E+00  0.0000E+00  0.0000E+00
REACH    2        0     1  0.2233E+01  0.8534E-01  0.8534E-01  0.8970E-05  0.0000E+00  0.2579E+05  0.2565E+05  0.5810E+05  0.7694E+04  0.7689E+04  0.1702E+04  0.1700E+04  0.9944E+02  0.9933E+02  0.0000E+00  0.3825E+01  0.0000E+00  0.5118E-04  0.9208E+00  0.2459E+01  0.2125E+03  0.1884E+03  0.1503E+07  0.1493E+07  0.1350E+04  0.1297E+03  0.0000E+00  0.0000E+00  0.0000E+00  0.0000E+00  0.0000E+00  0.0000E+00  0.0000E+00  0.0000E+00  0.0000E+00  0.0000E+00  0.0000E+00  0.0000E+00  0.0000E+00  0.0000E+00  0.0000E+00  0.0000E+00  0.0000E+00  0.7792E+04  0.1702E+04  0.0000E+00  0.0000E+00  0.0000E+00  0.0000E+00  0.0000E+00  0.0000E+00  0.0000E+00  0.0000E+00  0.0000E+00  0.0000E+00  0.0000E+00  0.0000E+00  0.0000E+00  0.0000E+00
REACH    3        0     1  0.1834E+01  0.7946E-01  0.7946E-01  0.5791E-05  0.0000E+00  0.3101E+05  0.3088E+05  0.6604E+05  0.6207E+04  0.6203E+04  0.1374E+04  0.1372E+04  0.1080E+03  0.1079E+03  0.0000E+00  0.1526E+01  0.0000E+00  0.4097E-05  0.4564E+00  0.1281E+01  0.1612E+03  0.1481E+03  0.1594E+07  0.1586E+07  0.1409E+04  0.1751E+03  0.0000E+00  0.0000E+00  0.0000E+00  0.0000E+00  0.0000E+00  0.0000E+00  0.0000E+00  0.0000E+00  0.0000E+00  0.0000E+00  0.0000E+00  0.0000E+00  0.0000E+00  0.0000E+00  0.0000E+00  0.0000E+00  0.0000E+00  0.6313E+04  0.1374E+04  0.0000E+00  0.0000E+00  0.0000E+00  0.0000E+00  0.0000E+00  0.0000E+00  0.0000E+00  0.0000E+00  0.0000E+00  0.0000E+00  0.0000E+00  0.0000E+00  0.0000E+00  0.0000E+00
REACH    1        0     2  0.5790E+01  0.5545E+00  0.5544E+00  0.5432E-04  0.0000E+00  0.2563E+06  0.4415E+03  0.3111E+03  0.2942E+04  0.2940E+04  0.6713E+03  0.6706E+03  0.2458E+03  0.2458E+03  0.6804E+00  0.1965E+01  0.0000E+00  0.4070E-03  0.2436E+01  0.3376E+01  0.8040E+02  0.7411E+02  0.1299E+08  0.1290E+08  0.2951E+04  0.8980E+03  0.0000E+00  0.0000E+00  0.0000E+00  0.0000E+00  0.0000E+00  0.0000E+00  0.0000E+00  0.0000E+00  0.0000E+00  0.0000E+00  0.0000E+00  0.0000E+00  0.0000E+00  0.0000E+00  0.0000E+00  0.0000E+00  0.0000E+00  0.3188E+04  0.6740E+03  0.0000E+00  0.0000E+00  0.0000E+00  0.0000E+00  0.0000E+00  0.0000E+00  0.0000E+00  0.0000E+00  0.0000E+00  0.0000E+00  0.0000E+00  0.0000E+00  0.0000E+00  0.0000E+00
REACH    2        0     2  0.2233E+01  0.1993E+00  0.1993E+00  0.1835E-04  0.0000E+00  0.7563E+05  0.7531E+05  0.8388E+05  0.1801E+04  0.1801E+04  0.4071E+03  0.4067E+03  0.7780E+02  0.7779E+02  0.0000E+00  0.5219E+00  0.0000E+00  0.0000E+00  0.1083E+01  0.1518E+01  0.5382E+02  0.5000E+02  0.4228E+07  0.4205E+07  0.2362E+04  0.3202E+03  0.0000E+00  0.0000E+00  0.0000E+00  0.0000E+00  0.0000E+00  0.0000E+00  0.0000E+00  0.0000E+00  0.0000E+00  0.0000E+00  0.0000E+00  0.0000E+00  0.0000E+00  0.0000E+00  0.0000E+00  0.0000E+00  0.0000E+00  0.1879E+04  0.4082E+03  0.0000E+00  0.0000E+00  0.0000E+00  0.0000E+00  0.0000E+00  0.0000E+00  0.0000E+00  0.0000E+00  0.0000E+00  0.0000E+00  0.0000E+00  0.0000E+00  0.0000E+00  0.0000E+00
REACH    3        0     2  0.1834E+01  0.1848E+00  0.1848E+00  0.1206E-04  0.0000E+00  0.9083E+05  0.9054E+05  0.9652E+05  0.6248E+03  0.6246E+03  0.1451E+03  0.1451E+03  0.8791E+02  0.8791E+02  0.0000E+00  0.1585E+00  0.0000E+00  0.0000E+00  0.3258E+00  0.4439E+00  0.1668E+02  0.1584E+02  0.4459E+07  0.4440E+07  0.2535E+04  0.3454E+03  0.0000E+00  0.0000E+00  0.0000E+00  0.0000E+00  0.0000E+00  0.0000E+00  0.0000E+00  0.0000E+00  0.0000E+00  0.0000E+00  0.0000E+00  0.0000E+00  0.0000E+00  0.0000E+00  0.0000E+00  0.0000E+00  0.0000E+00  0.7127E+03  0.1455E+03  0.0000E+00  0.0000E+00  0.0000E+00  0.0000E+00  0.0000E+00  0.0000E+00  0.0000E+00  0.0000E+00  0.0000E+00  0.0000E+00  0.0000E+00  0.0000E+00  0.0000E+00  0.0000E+00
REACH    1        0     3  0.5790E+01  0.2931E+00  0.2930E+00  0.5445E-04  0.0000E+00  0.7166E+05  0.2027E+03  0.2312E+03  0.1307E+03  0.1305E+03  0.3049E+02  0.3043E+02  0.1136E+03  0.1135E+03  0.6240E-01  0.1817E+00  0.0000E+00  0.0000E+00  0.4120E+00  0.4726E+00  0.3523E+01  0.3049E+01  0.3241E+07  0.3212E+07  0.3657E+04  0.2133E+04  0.0000E+00  0.0000E+00  0.0000E+00  0.0000E+00  0.0000E+00  0.0000E+00  0.0000E+00  0.0000E+00  0.0000E+00  0.0000E+00  0.0000E+00  0.0000E+00  0.0000E+00  0.0000E+00  0.0000E+00  0.0000E+00  0.0000E+00  0.2443E+03  0.3090E+02  0.0000E+00  0.0000E+00  0.0000E+00  0.0000E+00  0.0000E+00  0.0000E+00  0.0000E+00  0.0000E+00  0.0000E+00  0.0000E+00  0.0000E+00  0.0000E+00  0.0000E+00  0.0000E+00
REACH    2        0     3  0.2233E+01  0.1056E+00  0.1056E+00  0.1824E-04  0.0000E+00  0.2114E+05  0.2103E+05  0.3316E+05  0.8782E+02  0.8774E+02  0.2014E+02  0.2011E+02  0.3761E+02  0.3761E+02  0.0000E+00  0.4721E-01  0.0000E+00  0.0000E+00  0.2321E+00  0.2602E+00  0.2701E+01  0.2368E+01  0.1040E+07  0.1033E+07  0.2309E+04  0.8205E+03  0.0000E+00  0.0000E+00  0.0000E+00  0.0000E+00  0.0000E+00  0.0000E+00  0.0000E+00  0.0000E+00  0.0000E+00  0.0000E+00  0.0000E+00  0.0000E+00  0.0000E+00  0.0000E+00  0.0000E+00  0.0000E+00  0.0000E+00  0.1254E+03  0.2037E+02  0.0000E+00  0.0000E+00  0.0000E+00  0.0000E+00  0.0000E+00  0.0000E+00  0.0000E+00  0.0000E+00  0.0000E+00  0.0000E+00  0.0000E+00  0.0000E+00  0.0000E+00  0.0000E+00
REACH    3        0     3  0.1834E+01  0.9855E-01  0.9854E-01  0.1184E-04  0.0000E+00  0.2542E+05  0.2532E+05  0.4143E+05  0.1212E+02  0.1212E+02  0.3232E+01  0.3229E+01  0.4048E+02  0.4048E+02  0.0000E+00  0.1519E-01  0.0000E+00  0.0000E+00  0.4773E-01  0.5187E-01  0.3380E+00  0.3075E+00  0.1117E+07  0.1111E+07  0.2243E+04  0.8337E+03  0.0000E+00  0.0000E+00  0.0000E+00  0.0000E+00  0.0000E+00  0.0000E+00  0.0000E+00  0.0000E+00  0.0000E+00  0.0000E+00  0.0000E+00  0.0000E+00  0.0000E+00  0.0000E+00  0.0000E+00  0.0000E+00  0.0000E+00  0.5261E+02  0.3280E+01  0.0000E+00  0.0000E+00  0.0000E+00  0.0000E+00  0.0000E+00  0.0000E+00  0.0000E+00  0.0000E+00  0.0000E+00  0.0000E+00  0.0000E+00  0.0000E+00  0.0000E+00  0.0000E+00
REACH    1        0     4  0.5790E+01  0.2001E+00  0.2001E+00  0.6782E-04  0.0000E+00  0.2234E+05  0.1160E+03  0.2039E+03  0.5472E+02  0.5464E+02  0.1208E+02  0.1206E+02  0.5000E+02  0.5001E+02  0.3565E-01  0.1005E+00  0.0000E+00  0.0000E+00  0.1561E+00  0.1816E+00  0.1361E+01  0.1160E+01  0.8365E+06  0.8279E+06  0.3858E+04  0.3220E+04  0.0000E+00  0.0000E+00  0.0000E+00  0.0000E+00  0.0000E+00  0.0000E+00  0.0000E+00  0.0000E+00  0.0000E+00  0.0000E+00  0.0000E+00  0.0000E+00  0.0000E+00  0.0000E+00  0.0000E+00  0.0000E+00  0.0000E+00  0.1048E+03  0.1224E+02  0.0000E+00  0.0000E+00  0.0000E+00  0.0000E+00  0.0000E+00  0.0000E+00  0.0000E+00  0.0000E+00  0.0000E+00  0.0000E+00  0.0000E+00  0.0000E+00  0.0000E+00  0.0000E+00
REACH    2        0     4  0.2233E+01  0.7464E-01  0.7461E-01  0.2282E-04  0.0000E+00  0.6597E+04  0.6554E+04  0.1790E+05  0.3685E+02  0.3680E+02  0.8178E+01  0.8164E+01  0.1774E+02  0.1774E+02  0.0000E+00  0.2471E-01  0.0000E+00  0.0000E+00  0.8622E-01  0.9931E-01  0.1052E+01  0.9129E+00  0.2648E+06  0.2625E+06  0.1881E+04  0.1242E+04  0.0000E+00  0.0000E+00  0.0000E+00  0.0000E+00  0.0000E+00  0.0000E+00  0.0000E+00  0.0000E+00  0.0000E+00  0.0000E+00  0.0000E+00  0.0000E+00  0.0000E+00  0.0000E+00  0.0000E+00  0.0000E+00  0.0000E+00  0.5456E+02  0.8263E+01  0.0000E+00  0.0000E+00  0.0000E+00  0.0000E+00  0.0000E+00  0.0000E+00  0.0000E+00  0.0000E+00  0.0000E+00  0.0000E+00  0.0000E+00  0.0000E+00  0.0000E+00  0.0000E+00
REACH    3        0     4  0.1834E+01  0.6600E-01  0.6598E-01  0.1472E-04  0.0000E+00  0.7928E+04  0.7891E+04  0.2343E+05  0.5034E+01  0.5030E+01  0.1130E+01  0.1128E+01  0.1745E+02  0.1745E+02  0.0000E+00  0.1094E-01  0.0000E+00  0.0000E+00  0.1752E-01  0.1940E-01  0.1344E+00  0.1210E+00  0.2902E+06  0.2884E+06  0.1684E+04  0.1106E+04  0.0000E+00  0.0000E+00  0.0000E+00  0.0000E+00  0.0000E+00  0.0000E+00  0.0000E+00  0.0000E+00  0.0000E+00  0.0000E+00  0.0000E+00  0.0000E+00  0.0000E+00  0.0000E+00  0.0000E+00  0.0000E+00  0.0000E+00  0.2249E+02  0.1148E+01  0.0000E+00  0.0000E+00  0.0000E+00  0.0000E+00  0.0000E+00  0.0000E+00  0.0000E+00  0.0000E+00  0.0000E+00  0.0000E+00  0.0000E+00  0.0000E+00  0.0000E+00  0.0000E+00
REACH    1        0     5  0.5790E+01  0.8826E-01  0.8817E-01  0.1049E-03  0.0000E+00  0.9121E+03  0.3202E+02  0.1257E+03  0.1557E+01  0.1558E+01  0.3407E+00  0.3405E+00  0.9418E+01  0.9413E+01  0.1499E-01  0.4441E-01  0.0000E+00  0.1368E-04  0.7432E-02  0.1060E-01  0.9368E-02  0.5945E-02  0.1317E+05  0.1294E+05  0.2551E+04  0.2456E+04  0.0000E+00  0.0000E+00  0.0000E+00  0.0000E+00  0.0000E+00  0.0000E+00  0.0000E+00  0.0000E+00  0.0000E+00  0.0000E+00  0.0000E+00  0.0000E+00  0.0000E+00  0.0000E+00  0.0000E+00  0.0000E+00  0.0000E+00  0.1102E+02  0.3511E+00  0.0000E+00  0.0000E+00  0.0000E+00  0.0000E+00  0.0000E+00  0.0000E+00  0.0000E+00  0.0000E+00  0.0000E+00  0.0000E+00  0.0000E+00  0.0000E+00  0.0000E+00  0.0000E+00
REACH    2        0     5  0.2233E+01  0.3626E-01  0.3623E-01  0.3461E-04  0.0000E+00  0.2703E+03  0.2675E+03  0.1806E+04  0.1019E+01  0.1020E+01  0.2241E+00  0.2241E+00  0.4220E+01  0.4218E+01  0.0000E+00  0.8431E-02  0.0000E+00  0.0000E+00  0.3398E-02  0.4510E-02  0.7967E-02  0.5525E-02  0.3932E+04  0.3875E+04  0.1115E+04  0.1027E+04  0.0000E+00  0.0000E+00  0.0000E+00  0.0000E+00  0.0000E+00  0.0000E+00  0.0000E+00  0.0000E+00  0.0000E+00  0.0000E+00  0.0000E+00  0.0000E+00  0.0000E+00  0.0000E+00  0.0000E+00  0.0000E+00  0.0000E+00  0.5247E+01  0.2286E+00  0.0000E+00  0.0000E+00  0.0000E+00  0.0000E+00  0.0000E+00  0.0000E+00  0.0000E+00  0.0000E+00  0.0000E+00  0.0000E+00  0.0000E+00  0.0000E+00  0.0000E+00  0.0000E+00
REACH    3        0     5  0.1834E+01  0.2813E-01  0.2812E-01  0.2212E-04  0.0000E+00  0.3240E+03  0.3213E+03  0.2645E+04  0.1561E+00  0.1562E+00  0.3402E-01  0.3403E-01  0.3151E+01  0.3150E+01  0.0000E+00  0.6555E-02  0.0000E+00  0.0000E+00  0.8286E-03  0.1265E-02  0.1753E-02  0.1324E-02  0.4698E+04  0.4644E+04  0.8642E+03  0.7908E+03  0.0000E+00  0.0000E+00  0.0000E+00  0.0000E+00  0.0000E+00  0.0000E+00  0.0000E+00  0.0000E+00  0.0000E+00  0.0000E+00  0.0000E+00  0.0000E+00  0.0000E+00  0.0000E+00  0.0000E+00  0.0000E+00  0.0000E+00  0.3313E+01  0.3529E-01  0.0000E+00  0.0000E+00  0.0000E+00  0.0000E+00  0.0000E+00  0.0000E+00  0.0000E+00  0.0000E+00  0.0000E+00  0.0000E+00  0.0000E+00  0.0000E+00  0.0000E+00  0.0000E+00
REACH    1        0     6  0.5790E+01  0.2000E-01  0.1990E-01  0.1180E-03  0.0000E+00  0.1387E-06  0.3986E+01  0.7489E+02  0.1963E-04  0.1203E-04  0.3792E-04  0.1287E-04  0.7613E+00  0.7594E+00  0.8295E-02  0.2599E-01  0.0000E+00  0.4660E-04  0.8296E-05  0.0000E+00  0.7430E-11  0.0000E+00  0.0000E+00  0.0000E+00  0.6081E+03  0.6034E+03  0.0000E+00  0.0000E+00  0.0000E+00  0.0000E+00  0.0000E+00  0.0000E+00  0.0000E+00  0.0000E+00  0.0000E+00  0.0000E+00  0.0000E+00  0.0000E+00  0.0000E+00  0.0000E+00  0.0000E+00  0.0000E+00  0.0000E+00  0.7855E+00  0.1287E-04  0.0000E+00  0.0000E+00  0.0000E+00  0.0000E+00  0.0000E+00  0.0000E+00  0.0000E+00  0.0000E+00  0.0000E+00  0.0000E+00  0.0000E+00  0.0000E+00  0.0000E+00  0.0000E+00
REACH    2        0     6  0.2233E+01  0.1042E-01  0.1039E-01  0.3868E-04  0.0000E+00  0.9597E-07  0.0000E+00  0.0000E+00  0.1154E-04  0.4305E-05  0.2003E-04  0.4944E-05  0.4108E+00  0.4102E+00  0.0000E+00  0.5211E-02  0.0000E+00  0.0000E+00  0.6348E-05  0.0000E+00  0.6112E-11  0.0000E+00  0.0000E+00  0.0000E+00  0.3191E+03  0.3150E+03  0.0000E+00  0.0000E+00  0.0000E+00  0.0000E+00  0.0000E+00  0.0000E+00  0.0000E+00  0.0000E+00  0.0000E+00  0.0000E+00  0.0000E+00  0.0000E+00  0.0000E+00  0.0000E+00  0.0000E+00  0.0000E+00  0.0000E+00  0.4154E+00  0.4944E-05  0.0000E+00  0.0000E+00  0.0000E+00  0.0000E+00  0.0000E+00  0.0000E+00  0.0000E+00  0.0000E+00  0.0000E+00  0.0000E+00  0.0000E+00  0.0000E+00  0.0000E+00  0.0000E+00
REACH    3        0     6  0.1834E+01  0.4049E-02  0.4028E-02  0.2471E-04  0.0000E+00  0.2562E-06  0.4270E-07  0.8578E-05  0.8886E-05  0.4349E-05  0.1699E-04  0.1674E-04  0.2406E+00  0.2396E+00  0.0000E+00  0.3084E-02  0.0000E+00  0.0000E+00  0.5445E-05  0.3265E-05  0.5513E-11  0.0000E+00  0.0000E+00  0.0000E+00  0.1240E+03  0.1221E+03  0.0000E+00  0.0000E+00  0.0000E+00  0.0000E+00  0.0000E+00  0.0000E+00  0.0000E+00  0.0000E+00  0.0000E+00  0.0000E+00  0.0000E+00  0.0000E+00  0.0000E+00  0.0000E+00  0.0000E+00  0.0000E+00  0.0000E+00  0.2427E+00  0.2000E-04  0.0000E+00  0.0000E+00  0.0000E+00  0.0000E+00  0.0000E+00  0.0000E+00  0.0000E+00  0.0000E+00  0.0000E+00  0.0000E+00  0.0000E+00  0.0000E+00  0.0000E+00  0.0000E+00
REACH    1        0     7  0.5790E+01  0.1085E-01  0.1073E-01  0.1196E-03  0.0000E+00  0.3298E-06  0.1176E+01  0.4057E+02  0.9883E-05  0.0000E+00  0.5032E-04  0.4802E-04  0.5317E-01  0.5279E-01  0.9820E-02  0.3141E-01  0.2037E-06  0.1208E-03  0.2023E-04  0.0000E+00  0.2335E-11  0.0000E+00  0.0000E+00  0.0000E+00  0.3428E+03  0.3379E+03  0.0000E+00  0.0000E+00  0.0000E+00  0.0000E+00  0.0000E+00  0.0000E+00  0.0000E+00  0.0000E+00  0.0000E+00  0.0000E+00  0.0000E+00  0.0000E+00  0.0000E+00  0.0000E+00  0.0000E+00  0.0000E+00  0.0000E+00  0.8432E-01  0.4802E-04  0.0000E+00  0.0000E+00  0.0000E+00  0.0000E+00  0.0000E+00  0.0000E+00  0.0000E+00  0.0000E+00  0.0000E+00  0.0000E+00  0.0000E+00  0.0000E+00  0.0000E+00  0.0000E+00
REACH    2        0     7  0.2233E+01  0.5736E-02  0.5697E-02  0.3917E-04  0.0000E+00  0.9917E-07  0.0000E+00  0.0000E+00  0.6525E-05  0.0000E+00  0.1957E-04  0.1864E-04  0.2347E-01  0.2339E-01  0.0000E+00  0.3747E-02  0.0000E+00  0.0000E+00  0.6532E-05  0.0000E+00  0.2382E-11  0.0000E+00  0.0000E+00  0.0000E+00  0.1824E+03  0.1794E+03  0.0000E+00  0.0000E+00  0.0000E+00  0.0000E+00  0.0000E+00  0.0000E+00  0.0000E+00  0.0000E+00  0.0000E+00  0.0000E+00  0.0000E+00  0.0000E+00  0.0000E+00  0.0000E+00  0.0000E+00  0.0000E+00  0.0000E+00  0.2713E-01  0.1864E-04  0.0000E+00  0.0000E+00  0.0000E+00  0.0000E+00  0.0000E+00  0.0000E+00  0.0000E+00  0.0000E+00  0.0000E+00  0.0000E+00  0.0000E+00  0.0000E+00  0.0000E+00  0.0000E+00
REACH    3        0     7  0.1834E+01  0.1565E-02  0.1540E-02  0.2503E-04  0.0000E+00  0.2647E-06  0.2306E-06  0.6112E-04  0.5601E-05  0.4722E-05  0.1680E-04  0.1620E-04  0.2754E-01  0.2715E-01  0.0000E+00  0.6073E-02  0.0000E+00  0.2037E-06  0.5607E-05  0.1507E-04  0.7721E-11  0.0000E+00  0.0000E+00  0.0000E+00  0.4982E+02  0.4855E+02  0.0000E+00  0.0000E+00  0.0000E+00  0.0000E+00  0.0000E+00  0.0000E+00  0.0000E+00  0.0000E+00  0.0000E+00  0.0000E+00  0.0000E+00  0.0000E+00  0.0000E+00  0.0000E+00  0.0000E+00  0.0000E+00  0.0000E+00  0.3323E-01  0.3126E-04  0.0000E+00  0.0000E+00  0.0000E+00  0.0000E+00  0.0000E+00  0.0000E+00  0.0000E+00  0.0000E+00  0.0000E+00  0.0000E+00  0.0000E+00  0.0000E+00  0.0000E+00  0.0000E+00
REACH    1        0     8  0.5790E+01  0.8393E-02  0.8311E-02  0.8228E-04  0.0000E+00  0.3640E-06  0.7026E+00  0.3139E+02  0.1057E-04  0.0000E+00  0.5080E-04  0.4941E-04  0.3529E+00  0.3480E+00  0.1134E-01  0.3677E-01  0.0000E+00  0.1814E-03  0.2172E-04  0.1162E-04  0.2894E-11  0.0000E+00  0.0000E+00  0.0000E+00  0.2635E+03  0.2600E+03  0.0000E+00  0.0000E+00  0.0000E+00  0.0000E+00  0.0000E+00  0.0000E+00  0.0000E+00  0.0000E+00  0.0000E+00  0.0000E+00  0.0000E+00  0.0000E+00  0.0000E+00  0.0000E+00  0.0000E+00  0.0000E+00  0.0000E+00  0.3849E+00  0.6103E-04  0.0000E+00  0.0000E+00  0.0000E+00  0.0000E+00  0.0000E+00  0.0000E+00  0.0000E+00  0.0000E+00  0.0000E+00  0.0000E+00  0.0000E+00  0.0000E+00  0.0000E+00  0.0000E+00
REACH    2        0     8  0.2233E+01  0.4438E-02  0.4412E-02  0.2697E-04  0.0000E+00  0.9917E-07  0.0000E+00  0.0000E+00  0.6525E-05  0.0000E+00  0.1957E-04  0.1924E-04  0.1124E+00  0.1114E+00  0.0000E+00  0.4312E-02  0.0000E+00  0.0000E+00  0.6532E-05  0.0000E+00  0.3041E-11  0.0000E+00  0.0000E+00  0.0000E+00  0.1403E+03  0.1380E+03  0.0000E+00  0.0000E+00  0.0000E+00  0.0000E+00  0.0000E+00  0.0000E+00  0.0000E+00  0.0000E+00  0.0000E+00  0.0000E+00  0.0000E+00  0.0000E+00  0.0000E+00  0.0000E+00  0.0000E+00  0.0000E+00  0.0000E+00  0.1158E+00  0.1924E-04  0.0000E+00  0.0000E+00  0.0000E+00  0.0000E+00  0.0000E+00  0.0000E+00  0.0000E+00  0.0000E+00  0.0000E+00  0.0000E+00  0.0000E+00  0.0000E+00  0.0000E+00  0.0000E+00
REACH    3        0     8  0.1834E+01  0.1108E-02  0.1091E-02  0.1723E-04  0.0000E+00  0.2647E-06  0.2647E-06  0.9420E-04  0.5601E-05  0.5408E-05  0.1680E-04  0.1607E-04  0.1270E+00  0.1253E+00  0.0000E+00  0.7029E-02  0.0000E+00  0.0000E+00  0.5607E-05  0.1655E-04  0.9352E-11  0.0000E+00  0.0000E+00  0.0000E+00  0.3500E+02  0.3412E+02  0.0000E+00  0.0000E+00  0.0000E+00  0.0000E+00  0.0000E+00  0.0000E+00  0.0000E+00  0.0000E+00  0.0000E+00  0.0000E+00  0.0000E+00  0.0000E+00  0.0000E+00  0.0000E+00  0.0000E+00  0.0000E+00  0.0000E+00  0.1324E+00  0.3262E-04  0.0000E+00  0.0000E+00  0.0000E+00  0.0000E+00  0.0000E+00  0.0000E+00  0.0000E+00  0.0000E+00  0.0000E+00  0.0000E+00  0.0000E+00  0.0000E+00  0.0000E+00  0.0000E+00
REACH    1        0     9  0.5790E+01  0.8442E-02  0.8358E-02  0.8329E-04  0.0000E+00  0.4766E+03  0.7588E+00  0.2924E+02  0.6149E+00  0.6006E+00  0.1350E+00  0.1315E+00  0.7949E+00  0.7892E+00  0.9502E-02  0.3235E-01  0.0000E+00  0.1594E-03  0.3232E-02  0.4464E-02  0.5377E-02  0.0000E+00  0.2479E+05  0.2364E+05  0.2150E+03  0.2031E+03  0.0000E+00  0.0000E+00  0.0000E+00  0.0000E+00  0.0000E+00  0.0000E+00  0.0000E+00  0.0000E+00  0.0000E+00  0.0000E+00  0.0000E+00  0.0000E+00  0.0000E+00  0.0000E+00  0.0000E+00  0.0000E+00  0.0000E+00  0.1422E+01  0.1360E+00  0.0000E+00  0.0000E+00  0.0000E+00  0.0000E+00  0.0000E+00  0.0000E+00  0.0000E+00  0.0000E+00  0.0000E+00  0.0000E+00  0.0000E+00  0.0000E+00  0.0000E+00  0.0000E+00
REACH    2        0     9  0.2233E+01  0.4150E-02  0.4123E-02  0.2729E-04  0.0000E+00  0.1501E+03  0.1463E+03  0.3793E+04  0.4328E+00  0.4253E+00  0.9568E-01  0.9379E-01  0.2725E+00  0.2712E+00  0.0000E+00  0.3275E-02  0.0000E+00  0.0000E+00  0.1580E-02  0.2211E-02  0.1223E-01  0.0000E+00  0.8117E+04  0.7814E+04  0.1173E+03  0.1045E+03  0.0000E+00  0.0000E+00  0.0000E+00  0.0000E+00  0.0000E+00  0.0000E+00  0.0000E+00  0.0000E+00  0.0000E+00  0.0000E+00  0.0000E+00  0.0000E+00  0.0000E+00  0.0000E+00  0.0000E+00  0.0000E+00  0.0000E+00  0.6997E+00  0.9600E-01  0.0000E+00  0.0000E+00  0.0000E+00  0.0000E+00  0.0000E+00  0.0000E+00  0.0000E+00  0.0000E+00  0.0000E+00  0.0000E+00  0.0000E+00  0.0000E+00  0.0000E+00  0.0000E+00
REACH    3        0     9  0.1834E+01  0.1488E-02  0.1467E-02  0.1742E-04  0.0000E+00  0.1660E+03  0.1642E+03  0.5727E+04  0.5049E-01  0.4959E-01  0.1110E-01  0.1089E-01  0.2727E+00  0.2698E+00  0.0000E+00  0.6228E-02  0.0000E+00  0.0000E+00  0.2816E-03  0.3828E-03  0.3925E-02  0.4297E-03  0.9162E+04  0.9007E+04  0.3777E+02  0.3042E+02  0.0000E+00  0.0000E+00  0.0000E+00  0.0000E+00  0.0000E+00  0.0000E+00  0.0000E+00  0.0000E+00  0.0000E+00  0.0000E+00  0.0000E+00  0.0000E+00  0.0000E+00  0.0000E+00  0.0000E+00  0.0000E+00  0.0000E+00  0.3256E+00  0.1127E-01  0.0000E+00  0.0000E+00  0.0000E+00  0.0000E+00  0.0000E+00  0.0000E+00  0.0000E+00  0.0000E+00  0.0000E+00  0.0000E+00  0.0000E+00  0.0000E+00  0.0000E+00  0.0000E+00
REACH    1        0    10  0.5790E+01  0.3129E-01  0.3123E-01  0.4833E-04  0.0000E+00  0.1226E+05  0.9832E+01  0.6988E+02  0.1728E+02  0.1721E+02  0.3796E+01  0.3774E+01  0.8821E+01  0.8771E+01  0.1728E-01  0.5278E-01  0.0000E+00  0.8882E-04  0.6099E-01  0.8097E-01  0.3092E+00  0.1644E+00  0.6650E+06  0.6551E+06  0.3515E+03  0.1956E+03  0.0000E+00  0.0000E+00  0.0000E+00  0.0000E+00  0.0000E+00  0.0000E+00  0.0000E+00  0.0000E+00  0.0000E+00  0.0000E+00  0.0000E+00  0.0000E+00  0.0000E+00  0.0000E+00  0.0000E+00  0.0000E+00  0.0000E+00  0.2604E+02  0.3855E+01  0.0000E+00  0.0000E+00  0.0000E+00  0.0000E+00  0.0000E+00  0.0000E+00  0.0000E+00  0.0000E+00  0.0000E+00  0.0000E+00  0.0000E+00  0.0000E+00  0.0000E+00  0.0000E+00
REACH    2        0    10  0.2233E+01  0.1216E-01  0.1215E-01  0.1585E-04  0.0000E+00  0.3728E+04  0.3691E+04  0.2184E+05  0.1182E+02  0.1178E+02  0.2612E+01  0.2602E+01  0.3376E+01  0.3366E+01  0.0000E+00  0.1281E-01  0.0000E+00  0.0000E+00  0.3070E-01  0.4009E-01  0.3803E+00  0.1549E+00  0.2155E+06  0.2128E+06  0.2469E+03  0.8867E+02  0.0000E+00  0.0000E+00  0.0000E+00  0.0000E+00  0.0000E+00  0.0000E+00  0.0000E+00  0.0000E+00  0.0000E+00  0.0000E+00  0.0000E+00  0.0000E+00  0.0000E+00  0.0000E+00  0.0000E+00  0.0000E+00  0.0000E+00  0.1516E+02  0.2642E+01  0.0000E+00  0.0000E+00  0.0000E+00  0.0000E+00  0.0000E+00  0.0000E+00  0.0000E+00  0.0000E+00  0.0000E+00  0.0000E+00  0.0000E+00  0.0000E+00  0.0000E+00  0.0000E+00
REACH    3        0    10  0.1834E+01  0.9325E-02  0.9314E-02  0.1014E-04  0.0000E+00  0.4308E+04  0.4275E+04  0.2537E+05  0.1510E+01  0.1507E+01  0.3297E+00  0.3286E+00  0.2856E+01  0.2850E+01  0.0000E+00  0.4473E-02  0.0000E+00  0.0000E+00  0.6097E-02  0.7681E-02  0.5785E-01  0.2547E-01  0.2335E+06  0.2312E+06  0.1807E+03  0.5795E+02  0.0000E+00  0.0000E+00  0.0000E+00  0.0000E+00  0.0000E+00  0.0000E+00  0.0000E+00  0.0000E+00  0.0000E+00  0.0000E+00  0.0000E+00  0.0000E+00  0.0000E+00  0.0000E+00  0.0000E+00  0.0000E+00  0.0000E+00  0.4361E+01  0.3363E+00  0.0000E+00  0.0000E+00  0.0000E+00  0.0000E+00  0.0000E+00  0.0000E+00  0.0000E+00  0.0000E+00  0.0000E+00  0.0000E+00  0.0000E+00  0.0000E+00  0.0000E+00  0.0000E+00
REACH    1        0    11  0.5790E+01  0.1104E+00  0.1104E+00  0.3615E-04  0.0000E+00  0.5157E+05  0.5776E+02  0.1303E+03  0.8495E+02  0.8478E+02  0.1852E+02  0.1847E+02  0.7966E+02  0.7963E+02  0.4902E-01  0.1431E+00  0.0000E+00  0.7318E-04  0.2369E+00  0.2878E+00  0.2453E+01  0.1792E+01  0.2766E+07  0.2737E+07  0.1018E+04  0.5333E+03  0.0000E+00  0.0000E+00  0.0000E+00  0.0000E+00  0.0000E+00  0.0000E+00  0.0000E+00  0.0000E+00  0.0000E+00  0.0000E+00  0.0000E+00  0.0000E+00  0.0000E+00  0.0000E+00  0.0000E+00  0.0000E+00  0.0000E+00  0.1645E+03  0.1875E+02  0.0000E+00  0.0000E+00  0.0000E+00  0.0000E+00  0.0000E+00  0.0000E+00  0.0000E+00  0.0000E+00  0.0000E+00  0.0000E+00  0.0000E+00  0.0000E+00  0.0000E+00  0.0000E+00
REACH    2        0    11  0.2233E+01  0.4048E-01  0.4047E-01  0.1200E-04  0.0000E+00  0.1523E+05  0.1513E+05  0.4166E+05  0.5759E+02  0.5750E+02  0.1261E+02  0.1257E+02  0.2589E+02  0.2588E+02  0.0000E+00  0.4041E-01  0.0000E+00  0.0000E+00  0.1254E+00  0.1532E+00  0.2105E+01  0.1506E+01  0.8786E+06  0.8713E+06  0.6687E+03  0.2168E+03  0.0000E+00  0.0000E+00  0.0000E+00  0.0000E+00  0.0000E+00  0.0000E+00  0.0000E+00  0.0000E+00  0.0000E+00  0.0000E+00  0.0000E+00  0.0000E+00  0.0000E+00  0.0000E+00  0.0000E+00  0.0000E+00  0.0000E+00  0.8342E+02  0.1273E+02  0.0000E+00  0.0000E+00  0.0000E+00  0.0000E+00  0.0000E+00  0.0000E+00  0.0000E+00  0.0000E+00  0.0000E+00  0.0000E+00  0.0000E+00  0.0000E+00  0.0000E+00  0.0000E+00
REACH    3        0    11  0.1834E+01  0.3586E-01  0.3585E-01  0.7717E-05  0.0000E+00  0.1830E+05  0.1822E+05  0.4515E+05  0.7650E+01  0.7641E+01  0.1664E+01  0.1661E+01  0.2774E+02  0.2773E+02  0.0000E+00  0.8609E-02  0.0000E+00  0.0000E+00  0.2553E-01  0.2897E-01  0.2933E+00  0.2251E+00  0.9696E+06  0.9637E+06  0.6224E+03  0.2000E+03  0.0000E+00  0.0000E+00  0.0000E+00  0.0000E+00  0.0000E+00  0.0000E+00  0.0000E+00  0.0000E+00  0.0000E+00  0.0000E+00  0.0000E+00  0.0000E+00  0.0000E+00  0.0000E+00  0.0000E+00  0.0000E+00  0.0000E+00  0.3537E+02  0.1690E+01  0.0000E+00  0.0000E+00  0.0000E+00  0.0000E+00  0.0000E+00  0.0000E+00  0.0000E+00  0.0000E+00  0.0000E+00  0.0000E+00  0.0000E+00  0.0000E+00  0.0000E+00  0.0000E+00
REACH    1        0    12  0.5790E+01  0.9192E-01  0.9189E-01  0.3437E-04  0.0000E+00  0.3204E+05  0.4889E+02  0.1159E+03  0.5288E+02  0.5278E+02  0.1145E+02  0.1142E+02  0.4338E+02  0.4338E+02  0.3239E-01  0.9466E-01  0.0000E+00  0.5842E-04  0.1572E+00  0.1885E+00  0.1498E+01  0.1134E+01  0.1728E+07  0.1711E+07  0.1156E+04  0.8049E+03  0.0000E+00  0.0000E+00  0.0000E+00  0.0000E+00  0.0000E+00  0.0000E+00  0.0000E+00  0.0000E+00  0.0000E+00  0.0000E+00  0.0000E+00  0.0000E+00  0.0000E+00  0.0000E+00  0.0000E+00  0.0000E+00  0.0000E+00  0.9626E+02  0.1161E+02  0.0000E+00  0.0000E+00  0.0000E+00  0.0000E+00  0.0000E+00  0.0000E+00  0.0000E+00  0.0000E+00  0.0000E+00  0.0000E+00  0.0000E+00  0.0000E+00  0.0000E+00  0.0000E+00
REACH    2        0    12  0.2233E+01  0.3538E-01  0.3536E-01  0.1127E-04  0.0000E+00  0.9460E+04  0.9402E+04  0.2200E+05  0.3581E+02  0.3577E+02  0.7764E+01  0.7749E+01  0.1405E+02  0.1404E+02  0.0000E+00  0.2543E-01  0.0000E+00  0.0000E+00  0.8561E-01  0.1002E+00  0.1252E+01  0.9628E+00  0.5415E+06  0.5373E+06  0.6816E+03  0.3638E+03  0.0000E+00  0.0000E+00  0.0000E+00  0.0000E+00  0.0000E+00  0.0000E+00  0.0000E+00  0.0000E+00  0.0000E+00  0.0000E+00  0.0000E+00  0.0000E+00  0.0000E+00  0.0000E+00  0.0000E+00  0.0000E+00  0.0000E+00  0.4984E+02  0.7849E+01  0.0000E+00  0.0000E+00  0.0000E+00  0.0000E+00  0.0000E+00  0.0000E+00  0.0000E+00  0.0000E+00  0.0000E+00  0.0000E+00  0.0000E+00  0.0000E+00  0.0000E+00  0.0000E+00
REACH    3        0    12  0.1834E+01  0.3053E-01  0.3052E-01  0.7223E-05  0.0000E+00  0.1137E+05  0.1132E+05  0.2550E+05  0.4775E+01  0.4771E+01  0.1035E+01  0.1033E+01  0.1527E+02  0.1527E+02  0.0000E+00  0.6968E-02  0.0000E+00  0.0000E+00  0.1750E-01  0.1961E-01  0.1578E+00  0.1292E+00  0.5995E+06  0.5958E+06  0.5938E+03  0.3121E+03  0.0000E+00  0.0000E+00  0.0000E+00  0.0000E+00  0.0000E+00  0.0000E+00  0.0000E+00  0.0000E+00  0.0000E+00  0.0000E+00  0.0000E+00  0.0000E+00  0.0000E+00  0.0000E+00  0.0000E+00  0.0000E+00  0.0000E+00  0.2005E+02  0.1053E+01  0.0000E+00  0.0000E+00  0.0000E+00  0.0000E+00  0.0000E+00  0.0000E+00  0.0000E+00  0.0000E+00  0.0000E+00  0.0000E+00  0.0000E+00  0.0000E+00  0.0000E+00  0.0000E+00
REACH    1        0  1982  0.5790E+01  0.1335E+00  0.1334E+00  0.6911E-04  0.0000E+00  0.5349E+06  0.1077E+04  0.1280E+03  0.2268E+05  0.2266E+05  0.5037E+04  0.5029E+04  0.8592E+03  0.8586E+03  0.6282E+01  0.1900E+02  0.5548E-04  0.6781E-02  0.7692E+01  0.1527E+02  0.5706E+03  0.5021E+03  0.2691E+08  0.2668E+08  0.1853E+05  0.1193E+05  0.0000E+00  0.0000E+00  0.0000E+00  0.0000E+00  0.0000E+00  0.0000E+00  0.0000E+00  0.0000E+00  0.0000E+00  0.0000E+00  0.0000E+00  0.0000E+00  0.0000E+00  0.0000E+00  0.0000E+00  0.0000E+00  0.0000E+00  0.2353E+05  0.5044E+04  0.0000E+00  0.0000E+00  0.0000E+00  0.0000E+00  0.0000E+00  0.0000E+00  0.0000E+00  0.0000E+00  0.0000E+00  0.0000E+00  0.0000E+00  0.0000E+00  0.0000E+00  0.0000E+00
REACH    2        0  1982  0.2233E+01  0.4960E-01  0.4958E-01  0.2281E-04  0.0000E+00  0.1580E+06  0.1572E+06  0.2304E+05  0.9727E+04  0.9721E+04  0.2161E+04  0.2158E+04  0.2809E+03  0.2808E+03  0.0000E+00  0.4522E+01  0.0000E+00  0.5118E-04  0.2569E+01  0.4637E+01  0.2739E+03  0.2443E+03  0.8683E+07  0.8626E+07  0.1137E+05  0.4946E+04  0.0000E+00  0.0000E+00  0.0000E+00  0.0000E+00  0.0000E+00  0.0000E+00  0.0000E+00  0.0000E+00  0.0000E+00  0.0000E+00  0.0000E+00  0.0000E+00  0.0000E+00  0.0000E+00  0.0000E+00  0.0000E+00  0.0000E+00  0.1001E+05  0.2163E+04  0.0000E+00  0.0000E+00  0.0000E+00  0.0000E+00  0.0000E+00  0.0000E+00  0.0000E+00  0.0000E+00  0.0000E+00  0.0000E+00  0.0000E+00  0.0000E+00  0.0000E+00  0.0000E+00
REACH    3        0  1982  0.1834E+01  0.4362E-01  0.4360E-01  0.1464E-04  0.0000E+00  0.1897E+06  0.1889E+06  0.2692E+05  0.6863E+04  0.6859E+04  0.1526E+04  0.1525E+04  0.3035E+03  0.3034E+03  0.0000E+00  0.1760E+01  0.0000E+00  0.4300E-05  0.8977E+00  0.1854E+01  0.1788E+03  0.1647E+03  0.9277E+07  0.9231E+07  0.1038E+05  0.4056E+04  0.0000E+00  0.0000E+00  0.0000E+00  0.0000E+00  0.0000E+00  0.0000E+00  0.0000E+00  0.0000E+00  0.0000E+00  0.0000E+00  0.0000E+00  0.0000E+00  0.0000E+00  0.0000E+00  0.0000E+00  0.0000E+00  0.0000E+00  0.7164E+04  0.1527E+04  0.0000E+00  0.0000E+00  0.0000E+00  0.0000E+00  0.0000E+00  0.0000E+00  0.0000E+00  0.0000E+00  0.0000E+00  0.0000E+00  0.0000E+00  0.0000E+00  0.0000E+00  0.0000E+00
REACH    1        0     1  0.5790E+01  0.2100E+00  0.2099E+00  0.3434E-04  0.0000E+00  0.7233E+05  0.1451E+03  0.1879E+03  0.1515E+05  0.1513E+05  0.3316E+04  0.3309E+04  0.7021E+02  0.6993E+02  0.3786E+01  0.1150E+02  0.3043E-04  0.4892E-02  0.2453E+01  0.6647E+01  0.4017E+03  0.3629E+03  0.3686E+07  0.3650E+07  0.1715E+04  0.8229E+03  0.0000E+00  0.0000E+00  0.0000E+00  0.0000E+00  0.0000E+00  0.0000E+00  0.0000E+00  0.0000E+00  0.0000E+00  0.0000E+00  0.0000E+00  0.0000E+00  0.0000E+00  0.0000E+00  0.0000E+00  0.0000E+00  0.0000E+00  0.1521E+05  0.3316E+04  0.0000E+00  0.0000E+00  0.0000E+00  0.0000E+00  0.0000E+00  0.0000E+00  0.0000E+00  0.0000E+00  0.0000E+00  0.0000E+00  0.0000E+00  0.0000E+00  0.0000E+00  0.0000E+00
REACH    2        0     1  0.2233E+01  0.7745E-01  0.7743E-01  0.1137E-04  0.0000E+00  0.2135E+05  0.2124E+05  0.4437E+05  0.5264E+04  0.5259E+04  0.1152E+04  0.1150E+04  0.2258E+02  0.2253E+02  0.0000E+00  0.1993E+01  0.0000E+00  0.2162E-04  0.4928E+00  0.1355E+01  0.1503E+03  0.1372E+03  0.1171E+07  0.1163E+07  0.1248E+04  0.3357E+03  0.0000E+00  0.0000E+00  0.0000E+00  0.0000E+00  0.0000E+00  0.0000E+00  0.0000E+00  0.0000E+00  0.0000E+00  0.0000E+00  0.0000E+00  0.0000E+00  0.0000E+00  0.0000E+00  0.0000E+00  0.0000E+00  0.0000E+00  0.5283E+04  0.1152E+04  0.0000E+00  0.0000E+00  0.0000E+00  0.0000E+00  0.0000E+00  0.0000E+00  0.0000E+00  0.0000E+00  0.0000E+00  0.0000E+00  0.0000E+00  0.0000E+00  0.0000E+00  0.0000E+00
REACH    3        0     1  0.1834E+01  0.6938E-01  0.6937E-01  0.7366E-05  0.0000E+00  0.2566E+05  0.2555E+05  0.5451E+05  0.5123E+04  0.5119E+04  0.1122E+04  0.1121E+04  0.2474E+02  0.2471E+02  0.0000E+00  0.1793E+01  0.0000E+00  0.8811E-05  0.2778E+00  0.7917E+00  0.1414E+03  0.1324E+03  0.1280E+07  0.1273E+07  0.1179E+04  0.3238E+03  0.0000E+00  0.0000E+00  0.0000E+00  0.0000E+00  0.0000E+00  0.0000E+00  0.0000E+00  0.0000E+00  0.0000E+00  0.0000E+00  0.0000E+00  0.0000E+00  0.0000E+00  0.0000E+00  0.0000E+00  0.0000E+00  0.0000E+00  0.5146E+04  0.1121E+04  0.0000E+00  0.0000E+00  0.0000E+00  0.0000E+00  0.0000E+00  0.0000E+00  0.0000E+00  0.0000E+00  0.0000E+00  0.0000E+00  0.0000E+00  0.0000E+00  0.0000E+00  0.0000E+00
REACH    1        0     2  0.5790E+01  0.3873E+00  0.3873E+00  0.5767E-04  0.0000E+00  0.2303E+06  0.3361E+03  0.2238E+03  0.2368E+04  0.2367E+04  0.5362E+03  0.5357E+03  0.5084E+02  0.5080E+02  0.8584E+00  0.2377E+01  0.0000E+00  0.4462E-03  0.1451E+01  0.2142E+01  0.7596E+02  0.7092E+02  0.1394E+08  0.1386E+08  0.2691E+04  0.1157E+04  0.0000E+00  0.0000E+00  0.0000E+00  0.0000E+00  0.0000E+00  0.0000E+00  0.0000E+00  0.0000E+00  0.0000E+00  0.0000E+00  0.0000E+00  0.0000E+00  0.0000E+00  0.0000E+00  0.0000E+00  0.0000E+00  0.0000E+00  0.2420E+04  0.5379E+03  0.0000E+00  0.0000E+00  0.0000E+00  0.0000E+00  0.0000E+00  0.0000E+00  0.0000E+00  0.0000E+00  0.0000E+00  0.0000E+00  0.0000E+00  0.0000E+00  0.0000E+00  0.0000E+00
REACH    2        0     2  0.2233E+01  0.1450E+00  0.1450E+00  0.1926E-04  0.0000E+00  0.6788E+05  0.6766E+05  0.3287E+05  0.1350E+04  0.1349E+04  0.3018E+03  0.3016E+03  0.1643E+02  0.1641E+02  0.0000E+00  0.6198E+00  0.0000E+00  0.0000E+00  0.6183E+00  0.8981E+00  0.4630E+02  0.4356E+02  0.4366E+07  0.4348E+07  0.1957E+04  0.5510E+03  0.0000E+00  0.0000E+00  0.0000E+00  0.0000E+00  0.0000E+00  0.0000E+00  0.0000E+00  0.0000E+00  0.0000E+00  0.0000E+00  0.0000E+00  0.0000E+00  0.0000E+00  0.0000E+00  0.0000E+00  0.0000E+00  0.0000E+00  0.1366E+04  0.3025E+03  0.0000E+00  0.0000E+00  0.0000E+00  0.0000E+00  0.0000E+00  0.0000E+00  0.0000E+00  0.0000E+00  0.0000E+00  0.0000E+00  0.0000E+00  0.0000E+00  0.0000E+00  0.0000E+00
REACH    3        0     2  0.1834E+01  0.1259E+00  0.1259E+00  0.1251E-04  0.0000E+00  0.8159E+05  0.8138E+05  0.3649E+05  0.5614E+03  0.5614E+03  0.1292E+03  0.1291E+03  0.1790E+02  0.1789E+02  0.0000E+00  0.2385E+00  0.0000E+00  0.0000E+00  0.1783E+00  0.2744E+00  0.1818E+02  0.1740E+02  0.4866E+07  0.4850E+07  0.1783E+04  0.5108E+03  0.0000E+00  0.0000E+00  0.0000E+00  0.0000E+00  0.0000E+00  0.0000E+00  0.0000E+00  0.0000E+00  0.0000E+00  0.0000E+00  0.0000E+00  0.0000E+00  0.0000E+00  0.0000E+00  0.0000E+00  0.0000E+00  0.0000E+00  0.5795E+03  0.1294E+03  0.0000E+00  0.0000E+00  0.0000E+00  0.0000E+00  0.0000E+00  0.0000E+00  0.0000E+00  0.0000E+00  0.0000E+00  0.0000E+00  0.0000E+00  0.0000E+00  0.0000E+00  0.0000E+00
REACH    1        0     3  0.5790E+01  0.3931E+00  0.3929E+00  0.7473E-04  0.0000E+00  0.1770E+06  0.3366E+03  0.2554E+03  0.3123E+03  0.3118E+03  0.7077E+02  0.7060E+02  0.6526E+02  0.6525E+02  0.1198E+00  0.3448E+00  0.0000E+00  0.7789E-04  0.7742E+00  0.8970E+00  0.1012E+02  0.9000E+01  0.9222E+07  0.9135E+07  0.2952E+04  0.1361E+04  0.0000E+00  0.0000E+00  0.0000E+00  0.0000E+00  0.0000E+00  0.0000E+00  0.0000E+00  0.0000E+00  0.0000E+00  0.0000E+00  0.0000E+00  0.0000E+00  0.0000E+00  0.0000E+00  0.0000E+00  0.0000E+00  0.0000E+00  0.3774E+03  0.7150E+02  0.0000E+00  0.0000E+00  0.0000E+00  0.0000E+00  0.0000E+00  0.0000E+00  0.0000E+00  0.0000E+00  0.0000E+00  0.0000E+00  0.0000E+00  0.0000E+00  0.0000E+00  0.0000E+00
REACH    2        0     3  0.2233E+01  0.1454E+00  0.1453E+00  0.2524E-04  0.0000E+00  0.5221E+05  0.5197E+05  0.6330E+05  0.2092E+03  0.2089E+03  0.4683E+02  0.4675E+02  0.2104E+02  0.2104E+02  0.0000E+00  0.9509E-01  0.0000E+00  0.0000E+00  0.4246E+00  0.4846E+00  0.7487E+01  0.6737E+01  0.2923E+07  0.2901E+07  0.2230E+04  0.5274E+03  0.0000E+00  0.0000E+00  0.0000E+00  0.0000E+00  0.0000E+00  0.0000E+00  0.0000E+00  0.0000E+00  0.0000E+00  0.0000E+00  0.0000E+00  0.0000E+00  0.0000E+00  0.0000E+00  0.0000E+00  0.0000E+00  0.0000E+00  0.2301E+03  0.4723E+02  0.0000E+00  0.0000E+00  0.0000E+00  0.0000E+00  0.0000E+00  0.0000E+00  0.0000E+00  0.0000E+00  0.0000E+00  0.0000E+00  0.0000E+00  0.0000E+00  0.0000E+00  0.0000E+00
REACH    3        0     3  0.1834E+01  0.1290E+00  0.1289E+00  0.1637E-04  0.0000E+00  0.6278E+05  0.6256E+05  0.7155E+05  0.2927E+02  0.2924E+02  0.7322E+01  0.7312E+01  0.2300E+02  0.2300E+02  0.0000E+00  0.2467E-01  0.0000E+00  0.0000E+00  0.9371E-01  0.1014E+00  0.9701E+00  0.8961E+00  0.3210E+07  0.3192E+07  0.2111E+04  0.5048E+03  0.0000E+00  0.0000E+00  0.0000E+00  0.0000E+00  0.0000E+00  0.0000E+00  0.0000E+00  0.0000E+00  0.0000E+00  0.0000E+00  0.0000E+00  0.0000E+00  0.0000E+00  0.0000E+00  0.0000E+00  0.0000E+00  0.0000E+00  0.5227E+02  0.7414E+01  0.0000E+00  0.0000E+00  0.0000E+00  0.0000E+00  0.0000E+00  0.0000E+00  0.0000E+00  0.0000E+00  0.0000E+00  0.0000E+00  0.0000E+00  0.0000E+00  0.0000E+00  0.0000E+00
REACH    1        0     4  0.5790E+01  0.2124E+00  0.2125E+00  0.6929E-04  0.0000E+00  0.4290E+05  0.1246E+03  0.2023E+03  0.9984E+02  0.9981E+02  0.2159E+02  0.2156E+02  0.3433E+02  0.3433E+02  0.4914E-01  0.1457E+00  0.0000E+00  0.0000E+00  0.2502E+00  0.2985E+00  0.2728E+01  0.2267E+01  0.1837E+07  0.1831E+07  0.3194E+04  0.2365E+04  0.0000E+00  0.0000E+00  0.0000E+00  0.0000E+00  0.0000E+00  0.0000E+00  0.0000E+00  0.0000E+00  0.0000E+00  0.0000E+00  0.0000E+00  0.0000E+00  0.0000E+00  0.0000E+00  0.0000E+00  0.0000E+00  0.0000E+00  0.1343E+03  0.2186E+02  0.0000E+00  0.0000E+00  0.0000E+00  0.0000E+00  0.0000E+00  0.0000E+00  0.0000E+00  0.0000E+00  0.0000E+00  0.0000E+00  0.0000E+00  0.0000E+00  0.0000E+00  0.0000E+00
REACH    2        0     4  0.2233E+01  0.7823E-01  0.7826E-01  0.2319E-04  0.0000E+00  0.1266E+05  0.1259E+05  0.2820E+05  0.6592E+02  0.6591E+02  0.1426E+02  0.1425E+02  0.1129E+02  0.1128E+02  0.0000E+00  0.3513E-01  0.0000E+00  0.0000E+00  0.1324E+00  0.1559E+00  0.2101E+01  0.1782E+01  0.5816E+06  0.5803E+06  0.1790E+04  0.8898E+03  0.0000E+00  0.0000E+00  0.0000E+00  0.0000E+00  0.0000E+00  0.0000E+00  0.0000E+00  0.0000E+00  0.0000E+00  0.0000E+00  0.0000E+00  0.0000E+00  0.0000E+00  0.0000E+00  0.0000E+00  0.0000E+00  0.0000E+00  0.7723E+02  0.1440E+02  0.0000E+00  0.0000E+00  0.0000E+00  0.0000E+00  0.0000E+00  0.0000E+00  0.0000E+00  0.0000E+00  0.0000E+00  0.0000E+00  0.0000E+00  0.0000E+00  0.0000E+00  0.0000E+00
REACH    3        0     4  0.1834E+01  0.7016E-01  0.7017E-01  0.1503E-04  0.0000E+00  0.1522E+05  0.1516E+05  0.3380E+05  0.9781E+01  0.9778E+01  0.2113E+01  0.2111E+01  0.1211E+02  0.1211E+02  0.0000E+00  0.1402E-01  0.0000E+00  0.0000E+00  0.2972E-01  0.3313E-01  0.2827E+00  0.2506E+00  0.6361E+06  0.6349E+06  0.1651E+04  0.8120E+03  0.0000E+00  0.0000E+00  0.0000E+00  0.0000E+00  0.0000E+00  0.0000E+00  0.0000E+00  0.0000E+00  0.0000E+00  0.0000E+00  0.0000E+00  0.0000E+00  0.0000E+00  0.0000E+00  0.0000E+00  0.0000E+00  0.0000E+00  0.2190E+02  0.2145E+01  0.0000E+00  0.0000E+00  0.0000E+00  0.0000E+00  0.0000E+00  0.0000E+00  0.0000E+00  0.0000E+00  0.0000E+00  0.0000E+00  0.0000E+00  0.0000E+00  0.0000E+00  0.0000E+00
REACH    1        0     5  0.5790E+01  0.7800E-01  0.7793E-01  0.9078E-04  0.0000E+00  0.4207E+03  0.2771E+02  0.1226E+03  0.4695E+00  0.4685E+00  0.1014E+00  0.1011E+00  0.4150E+01  0.4150E+01  0.1368E-01  0.4077E-01  0.0000E+00  0.1705E-04  0.2350E-02  0.3750E-02  0.1923E-02  0.1199E-02  0.3062E+04  0.3004E+04  0.2254E+04  0.2178E+04  0.0000E+00  0.0000E+00  0.0000E+00  0.0000E+00  0.0000E+00  0.0000E+00  0.0000E+00  0.0000E+00  0.0000E+00  0.0000E+00  0.0000E+00  0.0000E+00  0.0000E+00  0.0000E+00  0.0000E+00  0.0000E+00  0.0000E+00  0.4659E+01  0.1048E+00  0.0000E+00  0.0000E+00  0.0000E+00  0.0000E+00  0.0000E+00  0.0000E+00  0.0000E+00  0.0000E+00  0.0000E+00  0.0000E+00  0.0000E+00  0.0000E+00  0.0000E+00  0.0000E+00
REACH    2        0     5  0.2233E+01  0.2992E-01  0.2990E-01  0.3001E-04  0.0000E+00  0.1248E+03  0.1233E+03  0.9075E+03  0.2948E+00  0.2942E+00  0.6375E-01  0.6355E-01  0.1524E+01  0.1523E+01  0.0000E+00  0.7233E-02  0.0000E+00  0.0000E+00  0.9675E-03  0.1411E-02  0.1619E-02  0.1090E-02  0.9390E+03  0.9235E+03  0.9123E+03  0.8464E+03  0.0000E+00  0.0000E+00  0.0000E+00  0.0000E+00  0.0000E+00  0.0000E+00  0.0000E+00  0.0000E+00  0.0000E+00  0.0000E+00  0.0000E+00  0.0000E+00  0.0000E+00  0.0000E+00  0.0000E+00  0.0000E+00  0.0000E+00  0.1825E+01  0.6497E-01  0.0000E+00  0.0000E+00  0.0000E+00  0.0000E+00  0.0000E+00  0.0000E+00  0.0000E+00  0.0000E+00  0.0000E+00  0.0000E+00  0.0000E+00  0.0000E+00  0.0000E+00  0.0000E+00
REACH    3        0     5  0.1834E+01  0.2597E-01  0.2596E-01  0.1917E-04  0.0000E+00  0.1495E+03  0.1482E+03  0.1243E+04  0.5322E-01  0.5318E-01  0.1151E-01  0.1148E-01  0.1519E+01  0.1519E+01  0.0000E+00  0.6447E-02  0.0000E+00  0.0000E+00  0.2540E-03  0.4450E-03  0.4106E-03  0.3087E-03  0.1044E+04  0.1031E+04  0.7910E+03  0.7341E+03  0.0000E+00  0.0000E+00  0.0000E+00  0.0000E+00  0.0000E+00  0.0000E+00  0.0000E+00  0.0000E+00  0.0000E+00  0.0000E+00  0.0000E+00  0.0000E+00  0.0000E+00  0.0000E+00  0.0000E+00  0.0000E+00  0.0000E+00  0.1579E+01  0.1193E-01  0.0000E+00  0.0000E+00  0.0000E+00  0.0000E+00  0.0000E+00  0.0000E+00  0.0000E+00  0.0000E+00  0.0000E+00  0.0000E+00  0.0000E+00  0.0000E+00  0.0000E+00  0.0000E+00
REACH    1        0     6  0.5790E+01  0.2131E-01  0.2123E-01  0.9898E-04  0.0000E+00  0.9602E-07  0.4355E+01  0.7783E+02  0.5252E-05  0.0000E+00  0.2909E-04  0.3159E-05  0.3688E+00  0.3679E+00  0.8280E-02  0.2616E-01  0.0000E+00  0.3236E-04  0.5000E-05  0.0000E+00  0.1527E-11  0.0000E+00  0.0000E+00  0.0000E+00  0.6440E+03  0.6398E+03  0.0000E+00  0.0000E+00  0.0000E+00  0.0000E+00  0.0000E+00  0.0000E+00  0.0000E+00  0.0000E+00  0.0000E+00  0.0000E+00  0.0000E+00  0.0000E+00  0.0000E+00  0.0000E+00  0.0000E+00  0.0000E+00  0.0000E+00  0.3940E+00  0.3159E-05  0.0000E+00  0.0000E+00  0.0000E+00  0.0000E+00  0.0000E+00  0.0000E+00  0.0000E+00  0.0000E+00  0.0000E+00  0.0000E+00  0.0000E+00  0.0000E+00  0.0000E+00  0.0000E+00
REACH    2        0     6  0.2233E+01  0.1057E-01  0.1053E-01  0.3244E-04  0.0000E+00  0.9597E-07  0.0000E+00  0.0000E+00  0.6535E-05  0.0000E+00  0.1897E-04  0.1237E-05  0.1769E+00  0.1764E+00  0.0000E+00  0.5311E-02  0.0000E+00  0.0000E+00  0.6321E-05  0.0000E+00  0.1377E-11  0.0000E+00  0.0000E+00  0.0000E+00  0.3218E+03  0.3176E+03  0.0000E+00  0.0000E+00  0.0000E+00  0.0000E+00  0.0000E+00  0.0000E+00  0.0000E+00  0.0000E+00  0.0000E+00  0.0000E+00  0.0000E+00  0.0000E+00  0.0000E+00  0.0000E+00  0.0000E+00  0.0000E+00  0.0000E+00  0.1817E+00  0.1237E-05  0.0000E+00  0.0000E+00  0.0000E+00  0.0000E+00  0.0000E+00  0.0000E+00  0.0000E+00  0.0000E+00  0.0000E+00  0.0000E+00  0.0000E+00  0.0000E+00  0.0000E+00  0.0000E+00
REACH    3        0     6  0.1834E+01  0.4808E-02  0.4788E-02  0.2073E-04  0.0000E+00  0.2562E-06  0.0000E+00  0.0000E+00  0.5569E-05  0.0000E+00  0.1628E-04  0.1283E-04  0.1189E+00  0.1185E+00  0.0000E+00  0.2969E-02  0.0000E+00  0.0000E+00  0.5426E-05  0.0000E+00  0.3492E-11  0.0000E+00  0.0000E+00  0.0000E+00  0.1464E+03  0.1443E+03  0.0000E+00  0.0000E+00  0.0000E+00  0.0000E+00  0.0000E+00  0.0000E+00  0.0000E+00  0.0000E+00  0.0000E+00  0.0000E+00  0.0000E+00  0.0000E+00  0.0000E+00  0.0000E+00  0.0000E+00  0.0000E+00  0.0000E+00  0.1215E+00  0.1283E-04  0.0000E+00  0.0000E+00  0.0000E+00  0.0000E+00  0.0000E+00  0.0000E+00  0.0000E+00  0.0000E+00  0.0000E+00  0.0000E+00  0.0000E+00  0.0000E+00  0.0000E+00  0.0000E+00
REACH    1        0     7  0.5790E+01  0.1163E-01  0.1153E-01  0.9700E-04  0.0000E+00  0.2700E-06  0.1411E+01  0.4351E+02  0.8669E-05  0.0000E+00  0.4670E-04  0.3840E-04  0.1437E+00  0.1427E+00  0.9975E-02  0.3199E-01  0.2492E-06  0.1283E-03  0.1585E-04  0.0000E+00  0.2448E-11  0.0000E+00  0.0000E+00  0.0000E+00  0.3590E+03  0.3549E+03  0.0000E+00  0.0000E+00  0.0000E+00  0.0000E+00  0.0000E+00  0.0000E+00  0.0000E+00  0.0000E+00  0.0000E+00  0.0000E+00  0.0000E+00  0.0000E+00  0.0000E+00  0.0000E+00  0.0000E+00  0.0000E+00  0.0000E+00  0.1748E+00  0.3840E-04  0.0000E+00  0.0000E+00  0.0000E+00  0.0000E+00  0.0000E+00  0.0000E+00  0.0000E+00  0.0000E+00  0.0000E+00  0.0000E+00  0.0000E+00  0.0000E+00  0.0000E+00  0.0000E+00
REACH    2        0     7  0.2233E+01  0.6143E-02  0.6111E-02  0.3180E-04  0.0000E+00  0.9917E-07  0.0000E+00  0.0000E+00  0.6525E-05  0.0000E+00  0.1957E-04  0.1489E-04  0.6027E-01  0.6004E-01  0.0000E+00  0.4408E-02  0.0000E+00  0.0000E+00  0.6532E-05  0.0000E+00  0.2373E-11  0.0000E+00  0.0000E+00  0.0000E+00  0.1910E+03  0.1881E+03  0.0000E+00  0.0000E+00  0.0000E+00  0.0000E+00  0.0000E+00  0.0000E+00  0.0000E+00  0.0000E+00  0.0000E+00  0.0000E+00  0.0000E+00  0.0000E+00  0.0000E+00  0.0000E+00  0.0000E+00  0.0000E+00  0.0000E+00  0.6445E-01  0.1489E-04  0.0000E+00  0.0000E+00  0.0000E+00  0.0000E+00  0.0000E+00  0.0000E+00  0.0000E+00  0.0000E+00  0.0000E+00  0.0000E+00  0.0000E+00  0.0000E+00  0.0000E+00  0.0000E+00
REACH    3        0     7  0.1834E+01  0.2040E-02  0.2024E-02  0.2032E-04  0.0000E+00  0.2647E-06  0.1708E-06  0.4559E-04  0.5601E-05  0.3508E-05  0.1680E-04  0.1633E-04  0.5238E-01  0.5200E-01  0.0000E+00  0.5567E-02  0.0000E+00  0.2492E-06  0.5607E-05  0.1069E-04  0.7471E-11  0.0000E+00  0.0000E+00  0.0000E+00  0.6345E+02  0.6229E+02  0.0000E+00  0.0000E+00  0.0000E+00  0.0000E+00  0.0000E+00  0.0000E+00  0.0000E+00  0.0000E+00  0.0000E+00  0.0000E+00  0.0000E+00  0.0000E+00  0.0000E+00  0.0000E+00  0.0000E+00  0.0000E+00  0.0000E+00  0.5757E-01  0.2702E-04  0.0000E+00  0.0000E+00  0.0000E+00  0.0000E+00  0.0000E+00  0.0000E+00  0.0000E+00  0.0000E+00  0.0000E+00  0.0000E+00  0.0000E+00  0.0000E+00  0.0000E+00  0.0000E+00
REACH    1        0     8  0.5790E+01  0.7929E-02  0.7840E-02  0.8887E-04  0.0000E+00  0.3640E-06  0.6347E+00  0.2965E+02  0.1055E-04  0.0000E+00  0.5067E-04  0.4909E-04  0.1948E+00  0.1923E+00  0.1163E-01  0.3803E-01  0.0000E+00  0.1991E-03  0.2168E-04  0.4801E-04  0.3149E-11  0.0000E+00  0.0000E+00  0.0000E+00  0.2437E+03  0.2401E+03  0.0000E+00  0.0000E+00  0.0000E+00  0.0000E+00  0.0000E+00  0.0000E+00  0.0000E+00  0.0000E+00  0.0000E+00  0.0000E+00  0.0000E+00  0.0000E+00  0.0000E+00  0.0000E+00  0.0000E+00  0.0000E+00  0.0000E+00  0.2305E+00  0.9710E-04  0.0000E+00  0.0000E+00  0.0000E+00  0.0000E+00  0.0000E+00  0.0000E+00  0.0000E+00  0.0000E+00  0.0000E+00  0.0000E+00  0.0000E+00  0.0000E+00  0.0000E+00  0.0000E+00
REACH    2        0     8  0.2233E+01  0.4217E-02  0.4188E-02  0.2913E-04  0.0000E+00  0.9917E-07  0.0000E+00  0.0000E+00  0.6525E-05  0.0000E+00  0.1957E-04  0.1920E-04  0.6431E-01  0.6380E-01  0.0000E+00  0.4162E-02  0.0000E+00  0.0000E+00  0.6532E-05  0.0000E+00  0.3251E-11  0.0000E+00  0.0000E+00  0.0000E+00  0.1305E+03  0.1283E+03  0.0000E+00  0.0000E+00  0.0000E+00  0.0000E+00  0.0000E+00  0.0000E+00  0.0000E+00  0.0000E+00  0.0000E+00  0.0000E+00  0.0000E+00  0.0000E+00  0.0000E+00  0.0000E+00  0.0000E+00  0.0000E+00  0.0000E+00  0.6796E-01  0.1920E-04  0.0000E+00  0.0000E+00  0.0000E+00  0.0000E+00  0.0000E+00  0.0000E+00  0.0000E+00  0.0000E+00  0.0000E+00  0.0000E+00  0.0000E+00  0.0000E+00  0.0000E+00  0.0000E+00
REACH    3        0     8  0.1834E+01  0.1093E-02  0.1074E-02  0.1861E-04  0.0000E+00  0.2647E-06  0.2647E-06  0.9852E-04  0.5601E-05  0.5387E-05  0.1680E-04  0.1599E-04  0.6944E-01  0.6828E-01  0.0000E+00  0.7469E-02  0.0000E+00  0.0000E+00  0.5607E-05  0.1651E-04  0.9823E-11  0.0000E+00  0.0000E+00  0.0000E+00  0.3383E+02  0.3290E+02  0.0000E+00  0.0000E+00  0.0000E+00  0.0000E+00  0.0000E+00  0.0000E+00  0.0000E+00  0.0000E+00  0.0000E+00  0.0000E+00  0.0000E+00  0.0000E+00  0.0000E+00  0.0000E+00  0.0000E+00  0.0000E+00  0.0000E+00  0.7576E-01  0.3250E-04  0.0000E+00  0.0000E+00  0.0000E+00  0.0000E+00  0.0000E+00  0.0000E+00  0.0000E+00  0.0000E+00  0.0000E+00  0.0000E+00  0.0000E+00  0.0000E+00  0.0000E+00  0.0000E+00
REACH    1        0     9  0.5790E+01  0.9511E-02  0.9433E-02  0.7782E-04  0.0000E+00  0.6858E+03  0.9218E+00  0.3341E+02  0.7533E+00  0.7427E+00  0.1645E+00  0.1615E+00  0.9060E+00  0.9009E+00  0.9398E-02  0.3146E-01  0.1766E-06  0.1385E-03  0.4276E-02  0.8018E-02  0.5650E-02  0.0000E+00  0.3040E+05  0.2890E+05  0.2194E+03  0.1869E+03  0.0000E+00  0.0000E+00  0.0000E+00  0.0000E+00  0.0000E+00  0.0000E+00  0.0000E+00  0.0000E+00  0.0000E+00  0.0000E+00  0.0000E+00  0.0000E+00  0.0000E+00  0.0000E+00  0.0000E+00  0.0000E+00  0.0000E+00  0.1675E+01  0.1696E+00  0.0000E+00  0.0000E+00  0.0000E+00  0.0000E+00  0.0000E+00  0.0000E+00  0.0000E+00  0.0000E+00  0.0000E+00  0.0000E+00  0.0000E+00  0.0000E+00  0.0000E+00  0.0000E+00
REACH    2        0     9  0.2233E+01  0.4375E-02  0.4349E-02  0.2549E-04  0.0000E+00  0.2130E+03  0.2099E+03  0.6338E+04  0.5150E+00  0.5103E+00  0.1114E+00  0.1101E+00  0.3225E+00  0.3212E+00  0.0000E+00  0.4241E-02  0.0000E+00  0.0000E+00  0.1638E-02  0.2837E-02  0.1170E-01  0.0000E+00  0.9557E+04  0.9358E+04  0.1222E+03  0.9446E+02  0.0000E+00  0.0000E+00  0.0000E+00  0.0000E+00  0.0000E+00  0.0000E+00  0.0000E+00  0.0000E+00  0.0000E+00  0.0000E+00  0.0000E+00  0.0000E+00  0.0000E+00  0.0000E+00  0.0000E+00  0.0000E+00  0.0000E+00  0.8357E+00  0.1130E+00  0.0000E+00  0.0000E+00  0.0000E+00  0.0000E+00  0.0000E+00  0.0000E+00  0.0000E+00  0.0000E+00  0.0000E+00  0.0000E+00  0.0000E+00  0.0000E+00  0.0000E+00  0.0000E+00
REACH    3        0     9  0.1834E+01  0.1981E-02  0.1961E-02  0.1629E-04  0.0000E+00  0.2390E+03  0.2357E+03  0.8380E+04  0.6657E-01  0.6584E-01  0.1440E-01  0.1420E-01  0.3027E+00  0.3009E+00  0.0000E+00  0.5156E-02  0.0000E+00  0.1766E-06  0.3476E-03  0.7036E-03  0.5320E-02  0.1445E-03  0.1153E+05  0.1131E+05  0.5188E+02  0.3578E+02  0.0000E+00  0.0000E+00  0.0000E+00  0.0000E+00  0.0000E+00  0.0000E+00  0.0000E+00  0.0000E+00  0.0000E+00  0.0000E+00  0.0000E+00  0.0000E+00  0.0000E+00  0.0000E+00  0.0000E+00  0.0000E+00  0.0000E+00  0.3719E+00  0.1490E-01  0.0000E+00  0.0000E+00  0.0000E+00  0.0000E+00  0.0000E+00  0.0000E+00  0.0000E+00  0.0000E+00  0.0000E+00  0.0000E+00  0.0000E+00  0.0000E+00  0.0000E+00  0.0000E+00
REACH    1        0    10  0.5790E+01  0.2046E-01  0.2039E-01  0.6439E-04  0.0000E+00  0.5114E+04  0.5257E+01  0.5538E+02  0.9065E+01  0.9006E+01  0.1958E+01  0.1941E+01  0.2499E+01  0.2488E+01  0.1276E-01  0.4041E-01  0.1947E-06  0.1075E-03  0.3139E-01  0.4253E-01  0.1543E+00  0.6837E-01  0.3051E+06  0.2989E+06  0.3042E+03  0.2318E+03  0.0000E+00  0.0000E+00  0.0000E+00  0.0000E+00  0.0000E+00  0.0000E+00  0.0000E+00  0.0000E+00  0.0000E+00  0.0000E+00  0.0000E+00  0.0000E+00  0.0000E+00  0.0000E+00  0.0000E+00  0.0000E+00  0.0000E+00  0.1153E+02  0.1984E+01  0.0000E+00  0.0000E+00  0.0000E+00  0.0000E+00  0.0000E+00  0.0000E+00  0.0000E+00  0.0000E+00  0.0000E+00  0.0000E+00  0.0000E+00  0.0000E+00  0.0000E+00  0.0000E+00
REACH    2        0    10  0.2233E+01  0.8155E-02  0.8134E-02  0.2108E-04  0.0000E+00  0.1547E+04  0.1527E+04  0.1778E+05  0.6099E+01  0.6070E+01  0.1319E+01  0.1311E+01  0.9848E+00  0.9810E+00  0.0000E+00  0.7937E-02  0.0000E+00  0.0000E+00  0.1506E-01  0.2038E-01  0.2023E+00  0.6838E-01  0.9779E+05  0.9610E+05  0.1699E+03  0.1033E+03  0.0000E+00  0.0000E+00  0.0000E+00  0.0000E+00  0.0000E+00  0.0000E+00  0.0000E+00  0.0000E+00  0.0000E+00  0.0000E+00  0.0000E+00  0.0000E+00  0.0000E+00  0.0000E+00  0.0000E+00  0.0000E+00  0.0000E+00  0.7059E+01  0.1331E+01  0.0000E+00  0.0000E+00  0.0000E+00  0.0000E+00  0.0000E+00  0.0000E+00  0.0000E+00  0.0000E+00  0.0000E+00  0.0000E+00  0.0000E+00  0.0000E+00  0.0000E+00  0.0000E+00
REACH    3        0    10  0.1834E+01  0.5846E-02  0.5833E-02  0.1346E-04  0.0000E+00  0.1803E+04  0.1784E+04  0.2147E+05  0.8427E+00  0.8389E+00  0.1820E+00  0.1809E+00  0.8070E+00  0.8039E+00  0.0000E+00  0.4821E-02  0.0000E+00  0.1947E-06  0.3244E-02  0.4197E-02  0.3571E-01  0.1297E-01  0.1085E+06  0.1070E+06  0.1131E+03  0.6293E+02  0.0000E+00  0.0000E+00  0.0000E+00  0.0000E+00  0.0000E+00  0.0000E+00  0.0000E+00  0.0000E+00  0.0000E+00  0.0000E+00  0.0000E+00  0.0000E+00  0.0000E+00  0.0000E+00  0.0000E+00  0.0000E+00  0.0000E+00  0.1648E+01  0.1851E+00  0.0000E+00  0.0000E+00  0.0000E+00  0.0000E+00  0.0000E+00  0.0000E+00  0.0000E+00  0.0000E+00  0.0000E+00  0.0000E+00  0.0000E+00  0.0000E+00  0.0000E+00  0.0000E+00
REACH    1        0    11  0.5790E+01  0.4045E-01  0.4038E-01  0.4769E-04  0.0000E+00  0.1550E+05  0.2080E+02  0.5872E+02  0.3001E+02  0.2990E+02  0.6482E+01  0.6451E+01  0.1308E+02  0.1302E+02  0.1912E-01  0.6053E-01  0.7331E-06  0.1078E-03  0.8431E-01  0.1057E+00  0.8818E+00  0.6392E+00  0.1009E+07  0.9985E+06  0.4154E+03  0.2376E+03  0.0000E+00  0.0000E+00  0.0000E+00  0.0000E+00  0.0000E+00  0.0000E+00  0.0000E+00  0.0000E+00  0.0000E+00  0.0000E+00  0.0000E+00  0.0000E+00  0.0000E+00  0.0000E+00  0.0000E+00  0.0000E+00  0.0000E+00  0.4299E+02  0.6557E+01  0.0000E+00  0.0000E+00  0.0000E+00  0.0000E+00  0.0000E+00  0.0000E+00  0.0000E+00  0.0000E+00  0.0000E+00  0.0000E+00  0.0000E+00  0.0000E+00  0.0000E+00  0.0000E+00
REACH    2        0    11  0.2233E+01  0.1558E-01  0.1556E-01  0.1560E-04  0.0000E+00  0.4637E+04  0.4605E+04  0.1324E+05  0.2032E+02  0.2028E+02  0.4394E+01  0.4381E+01  0.4639E+01  0.4629E+01  0.0000E+00  0.1287E-01  0.0000E+00  0.7331E-06  0.4376E-01  0.5417E-01  0.7787E+00  0.5296E+00  0.3197E+06  0.3170E+06  0.2785E+03  0.1091E+03  0.0000E+00  0.0000E+00  0.0000E+00  0.0000E+00  0.0000E+00  0.0000E+00  0.0000E+00  0.0000E+00  0.0000E+00  0.0000E+00  0.0000E+00  0.0000E+00  0.0000E+00  0.0000E+00  0.0000E+00  0.0000E+00  0.0000E+00  0.2492E+02  0.4435E+01  0.0000E+00  0.0000E+00  0.0000E+00  0.0000E+00  0.0000E+00  0.0000E+00  0.0000E+00  0.0000E+00  0.0000E+00  0.0000E+00  0.0000E+00  0.0000E+00  0.0000E+00  0.0000E+00
REACH    3        0    11  0.1834E+01  0.1246E-01  0.1244E-01  0.9973E-05  0.0000E+00  0.5469E+04  0.5440E+04  0.1595E+05  0.2716E+01  0.2710E+01  0.5864E+00  0.5844E+00  0.4362E+01  0.4349E+01  0.0000E+00  0.6252E-02  0.0000E+00  0.0000E+00  0.9185E-02  0.1071E-01  0.1125E+00  0.8062E-01  0.3536E+06  0.3513E+06  0.2217E+03  0.7605E+02  0.0000E+00  0.0000E+00  0.0000E+00  0.0000E+00  0.0000E+00  0.0000E+00  0.0000E+00  0.0000E+00  0.0000E+00  0.0000E+00  0.0000E+00  0.0000E+00  0.0000E+00  0.0000E+00  0.0000E+00  0.0000E+00  0.0000E+00  0.7065E+01  0.5952E+00  0.0000E+00  0.0000E+00  0.0000E+00  0.0000E+00  0.0000E+00  0.0000E+00  0.0000E+00  0.0000E+00  0.0000E+00  0.0000E+00  0.0000E+00  0.0000E+00  0.0000E+00  0.0000E+00
REACH    1        0    12  0.5790E+01  0.2230E+00  0.2230E+00  0.2909E-04  0.0000E+00  0.8770E+05  0.1453E+03  0.1948E+03  0.1860E+03  0.1857E+03  0.4015E+02  0.4005E+02  0.1039E+03  0.1039E+03  0.8117E-01  0.2336E+00  0.0000E+00  0.5955E-04  0.4522E+00  0.5423E+00  0.6006E+01  0.4808E+01  0.4800E+07  0.4748E+07  0.1340E+04  0.2879E+03  0.0000E+00  0.0000E+00  0.0000E+00  0.0000E+00  0.0000E+00  0.0000E+00  0.0000E+00  0.0000E+00  0.0000E+00  0.0000E+00  0.0000E+00  0.0000E+00  0.0000E+00  0.0000E+00  0.0000E+00  0.0000E+00  0.0000E+00  0.2898E+03  0.4059E+02  0.0000E+00  0.0000E+00  0.0000E+00  0.0000E+00  0.0000E+00  0.0000E+00  0.0000E+00  0.0000E+00  0.0000E+00  0.0000E+00  0.0000E+00  0.0000E+00  0.0000E+00  0.0000E+00
REACH    2        0    12  0.2233E+01  0.8186E-01  0.8185E-01  0.9664E-05  0.0000E+00  0.2589E+05  0.2573E+05  0.6647E+05  0.1235E+03  0.1233E+03  0.2668E+02  0.2663E+02  0.3377E+02  0.3376E+02  0.0000E+00  0.6562E-01  0.0000E+00  0.0000E+00  0.2407E+00  0.2843E+00  0.4673E+01  0.3766E+01  0.1532E+07  0.1520E+07  0.1207E+04  0.1217E+03  0.0000E+00  0.0000E+00  0.0000E+00  0.0000E+00  0.0000E+00  0.0000E+00  0.0000E+00  0.0000E+00  0.0000E+00  0.0000E+00  0.0000E+00  0.0000E+00  0.0000E+00  0.0000E+00  0.0000E+00  0.0000E+00  0.0000E+00  0.1572E+03  0.2692E+02  0.0000E+00  0.0000E+00  0.0000E+00  0.0000E+00  0.0000E+00  0.0000E+00  0.0000E+00  0.0000E+00  0.0000E+00  0.0000E+00  0.0000E+00  0.0000E+00  0.0000E+00  0.0000E+00
REACH    3        0    12  0.1834E+01  0.7305E-01  0.7303E-01  0.6247E-05  0.0000E+00  0.3113E+05  0.3099E+05  0.7605E+05  0.1793E+02  0.1791E+02  0.3867E+01  0.3861E+01  0.3627E+02  0.3627E+02  0.0000E+00  0.1555E-01  0.0000E+00  0.0000E+00  0.5278E-01  0.5824E-01  0.6747E+00  0.5750E+00  0.1675E+07  0.1664E+07  0.1180E+04  0.1261E+03  0.0000E+00  0.0000E+00  0.0000E+00  0.0000E+00  0.0000E+00  0.0000E+00  0.0000E+00  0.0000E+00  0.0000E+00  0.0000E+00  0.0000E+00  0.0000E+00  0.0000E+00  0.0000E+00  0.0000E+00  0.0000E+00  0.0000E+00  0.5419E+02  0.3920E+01  0.0000E+00  0.0000E+00  0.0000E+00  0.0000E+00  0.0000E+00  0.0000E+00  0.0000E+00  0.0000E+00  0.0000E+00  0.0000E+00  0.0000E+00  0.0000E+00  0.0000E+00  0.0000E+00
REACH    1        0  1983  0.5790E+01  0.1322E+00  0.1321E+00  0.6911E-04  0.0000E+00  0.6319E+06  0.1149E+04  0.1227E+03  0.1816E+05  0.1813E+05  0.3993E+04  0.3986E+04  0.3459E+03  0.3455E+03  0.4979E+01  0.1487E+02  0.3178E-04  0.6207E-02  0.5503E+01  0.1069E+02  0.4976E+03  0.4506E+03  0.3483E+08  0.3456E+08  0.1633E+05  0.1006E+05  0.0000E+00  0.0000E+00  0.0000E+00  0.0000E+00  0.0000E+00  0.0000E+00  0.0000E+00  0.0000E+00  0.0000E+00  0.0000E+00  0.0000E+00  0.0000E+00  0.0000E+00  0.0000E+00  0.0000E+00  0.0000E+00  0.0000E+00  0.1849E+05  0.3997E+04  0.0000E+00  0.0000E+00  0.0000E+00  0.0000E+00  0.0000E+00  0.0000E+00  0.0000E+00  0.0000E+00  0.0000E+00  0.0000E+00  0.0000E+00  0.0000E+00  0.0000E+00  0.0000E+00
REACH    2        0  1983  0.2233E+01  0.4965E-01  0.4963E-01  0.2282E-04  0.0000E+00  0.1865E+06  0.1856E+06  0.2274E+05  0.7040E+04  0.7034E+04  0.1547E+04  0.1545E+04  0.1129E+03  0.1128E+03  0.0000E+00  0.2855E+01  0.0000E+00  0.2235E-04  0.1970E+01  0.3256E+01  0.2119E+03  0.1937E+03  0.1100E+08  0.1094E+08  0.1056E+05  0.4213E+04  0.0000E+00  0.0000E+00  0.0000E+00  0.0000E+00  0.0000E+00  0.0000E+00  0.0000E+00  0.0000E+00  0.0000E+00  0.0000E+00  0.0000E+00  0.0000E+00  0.0000E+00  0.0000E+00  0.0000E+00  0.0000E+00  0.0000E+00  0.7149E+04  0.1549E+04  0.0000E+00  0.0000E+00  0.0000E+00  0.0000E+00  0.0000E+00  0.0000E+00  0.0000E+00  0.0000E+00  0.0000E+00  0.0000E+00  0.0000E+00  0.0000E+00  0.0000E+00  0.0000E+00
[...]
REACH    1        0     5  0.5790E+01  0.1664E-01  0.1654E-01  0.1017E-03  0.0000E+00  0.1343E+04  0.2802E+01  0.5929E+02  0.5081E+02  0.5047E+02  0.1134E+02  0.1124E+02  0.8195E+00  0.8159E+00  0.8203E-01  0.2343E+00  0.7011E-05  0.3307E-03  0.1050E-01  0.3006E-01  0.5357E+00  0.2061E-01  0.5794E+05  0.5589E+05  0.4011E+03  0.3569E+03  0.0000E+00  0.0000E+00  0.0000E+00  0.0000E+00  0.0000E+00  0.0000E+00  0.0000E+00  0.0000E+00  0.0000E+00  0.0000E+00  0.0000E+00  0.0000E+00  0.0000E+00  0.0000E+00  0.0000E+00  0.0000E+00  0.0000E+00  0.5152E+02  0.1127E+02  0.0000E+00  0.0000E+00  0.0000E+00  0.0000E+00  0.0000E+00  0.0000E+00  0.0000E+00  0.0000E+00  0.0000E+00  0.0000E+00  0.0000E+00  0.0000E+00  0.0000E+00  0.0000E+00
REACH    2        0     5  0.2233E+01  0.8179E-02  0.8146E-02  0.3334E-04  0.0000E+00  0.4007E+03  0.3935E+03  0.8218E+04  0.2238E+02  0.2227E+02  0.4980E+01  0.4947E+01  0.3058E+00  0.3048E+00  0.0000E+00  0.4967E-01  0.0000E+00  0.4238E-05  0.2475E-02  0.6915E-02  0.4890E+00  0.1130E+00  0.1655E+05  0.1611E+05  0.2372E+03  0.1921E+03  0.0000E+00  0.0000E+00  0.0000E+00  0.0000E+00  0.0000E+00  0.0000E+00  0.0000E+00  0.0000E+00  0.0000E+00  0.0000E+00  0.0000E+00  0.0000E+00  0.0000E+00  0.0000E+00  0.0000E+00  0.0000E+00  0.0000E+00  0.2263E+02  0.4954E+01  0.0000E+00  0.0000E+00  0.0000E+00  0.0000E+00  0.0000E+00  0.0000E+00  0.0000E+00  0.0000E+00  0.0000E+00  0.0000E+00  0.0000E+00  0.0000E+00  0.0000E+00  0.0000E+00
REACH    3        0     5  0.1834E+01  0.3979E-02  0.3962E-02  0.2131E-04  0.0000E+00  0.4783E+03  0.4702E+03  0.1108E+05  0.1565E+02  0.1558E+02  0.3504E+01  0.3483E+01  0.2779E+00  0.2770E+00  0.0000E+00  0.3236E-01  0.0000E+00  0.2773E-05  0.8152E-03  0.2468E-02  0.3973E+00  0.1094E+00  0.2198E+05  0.2142E+05  0.1100E+03  0.8098E+02  0.0000E+00  0.0000E+00  0.0000E+00  0.0000E+00  0.0000E+00  0.0000E+00  0.0000E+00  0.0000E+00  0.0000E+00  0.0000E+00  0.0000E+00  0.0000E+00  0.0000E+00  0.0000E+00  0.0000E+00  0.0000E+00  0.0000E+00  0.1589E+02  0.3485E+01  0.0000E+00  0.0000E+00  0.0000E+00  0.0000E+00  0.0000E+00  0.0000E+00  0.0000E+00  0.0000E+00  0.0000E+00  0.0000E+00  0.0000E+00  0.0000E+00  0.0000E+00  0.0000E+00
REACH    1        0     6  0.5790E+01  0.9310E-02  0.9227E-02  0.8357E-04  0.0000E+00  0.4962E+03  0.9678E+00  0.3482E+02  0.1891E+02  0.1876E+02  0.4223E+01  0.4181E+01  0.4002E+00  0.3974E+00  0.3926E-01  0.1161E+00  0.3381E-05  0.2574E-03  0.4200E-02  0.1213E-01  0.1037E+00  0.0000E+00  0.2099E+05  0.2029E+05  0.2444E+03  0.2237E+03  0.0000E+00  0.0000E+00  0.0000E+00  0.0000E+00  0.0000E+00  0.0000E+00  0.0000E+00  0.0000E+00  0.0000E+00  0.0000E+00  0.0000E+00  0.0000E+00  0.0000E+00  0.0000E+00  0.0000E+00  0.0000E+00  0.0000E+00  0.1927E+02  0.4193E+01  0.0000E+00  0.0000E+00  0.0000E+00  0.0000E+00  0.0000E+00  0.0000E+00  0.0000E+00  0.0000E+00  0.0000E+00  0.0000E+00  0.0000E+00  0.0000E+00  0.0000E+00  0.0000E+00
REACH    2        0     6  0.2233E+01  0.4609E-02  0.4582E-02  0.2740E-04  0.0000E+00  0.1487E+03  0.1460E+03  0.5385E+04  0.8401E+01  0.8348E+01  0.1870E+01  0.1855E+01  0.1422E+00  0.1414E+00  0.0000E+00  0.2198E-01  0.0000E+00  0.2043E-05  0.9651E-03  0.2837E-02  0.1828E+00  0.0000E+00  0.6362E+04  0.6193E+04  0.1347E+03  0.1189E+03  0.0000E+00  0.0000E+00  0.0000E+00  0.0000E+00  0.0000E+00  0.0000E+00  0.0000E+00  0.0000E+00  0.0000E+00  0.0000E+00  0.0000E+00  0.0000E+00  0.0000E+00  0.0000E+00  0.0000E+00  0.0000E+00  0.0000E+00  0.8512E+01  0.1858E+01  0.0000E+00  0.0000E+00  0.0000E+00  0.0000E+00  0.0000E+00  0.0000E+00  0.0000E+00  0.0000E+00  0.0000E+00  0.0000E+00  0.0000E+00  0.0000E+00  0.0000E+00  0.0000E+00
REACH    3        0     6  0.1834E+01  0.1786E-02  0.1765E-02  0.1751E-04  0.0000E+00  0.1757E+03  0.1729E+03  0.6667E+04  0.5778E+01  0.5745E+01  0.1295E+01  0.1286E+01  0.1350E+00  0.1340E+00  0.0000E+00  0.1728E-01  0.0000E+00  0.1338E-05  0.3049E-03  0.9339E-03  0.1463E+00  0.0000E+00  0.8143E+04  0.7948E+04  0.4972E+02  0.3954E+02  0.0000E+00  0.0000E+00  0.0000E+00  0.0000E+00  0.0000E+00  0.0000E+00  0.0000E+00  0.0000E+00  0.0000E+00  0.0000E+00  0.0000E+00  0.0000E+00  0.0000E+00  0.0000E+00  0.0000E+00  0.0000E+00  0.0000E+00  0.5897E+01  0.1287E+01  0.0000E+00  0.0000E+00  0.0000E+00  0.0000E+00  0.0000E+00  0.0000E+00  0.0000E+00  0.0000E+00  0.0000E+00  0.0000E+00  0.0000E+00  0.0000E+00  0.0000E+00  0.0000E+00
REACH    1        0     7  0.5790E+01  0.4782E-02  0.4664E-02  0.1196E-03  0.0000E+00  0.9427E-05  0.2350E+00  0.1786E+02  0.8797E-02  0.8958E-02  0.1935E-02  0.1954E-02  0.4295E-01  0.4281E-01  0.9398E-02  0.3370E-01  0.2176E-05  0.1756E-03  0.1456E-03  0.5619E-03  0.2921E-05  0.0000E+00  0.1346E-04  0.1760E-03  0.1510E+03  0.1468E+03  0.0000E+00  0.0000E+00  0.0000E+00  0.0000E+00  0.0000E+00  0.0000E+00  0.0000E+00  0.0000E+00  0.0000E+00  0.0000E+00  0.0000E+00  0.0000E+00  0.0000E+00  0.0000E+00  0.0000E+00  0.0000E+00  0.0000E+00  0.8564E-01  0.2516E-02  0.0000E+00  0.0000E+00  0.0000E+00  0.0000E+00  0.0000E+00  0.0000E+00  0.0000E+00  0.0000E+00  0.0000E+00  0.0000E+00  0.0000E+00  0.0000E+00  0.0000E+00  0.0000E+00
REACH    2        0     7  0.2233E+01  0.2531E-02  0.2492E-02  0.3920E-04  0.0000E+00  0.3782E-05  0.2312E-05  0.2316E-03  0.4476E-02  0.4567E-02  0.9842E-03  0.9986E-03  0.1343E-01  0.1343E-01  0.0000E+00  0.2873E-02  0.0000E+00  0.2176E-05  0.2326E-04  0.8461E-04  0.2984E-05  0.0000E+00  0.0000E+00  0.4635E-05  0.8043E+02  0.7842E+02  0.0000E+00  0.0000E+00  0.0000E+00  0.0000E+00  0.0000E+00  0.0000E+00  0.0000E+00  0.0000E+00  0.0000E+00  0.0000E+00  0.0000E+00  0.0000E+00  0.0000E+00  0.0000E+00  0.0000E+00  0.0000E+00  0.0000E+00  0.2087E-01  0.1083E-02  0.0000E+00  0.0000E+00  0.0000E+00  0.0000E+00  0.0000E+00  0.0000E+00  0.0000E+00  0.0000E+00  0.0000E+00  0.0000E+00  0.0000E+00  0.0000E+00  0.0000E+00  0.0000E+00
REACH    3        0     7  0.1834E+01  0.6358E-03  0.6145E-03  0.2505E-04  0.0000E+00  0.2680E-05  0.2680E-05  0.7678E-03  0.1434E-02  0.1435E-02  0.3241E-03  0.3202E-03  0.1517E-01  0.1499E-01  0.0000E+00  0.6526E-02  0.0000E+00  0.0000E+00  0.1363E-04  0.4253E-04  0.4906E-05  0.0000E+00  0.0000E+00  0.8823E-05  0.2023E+02  0.1937E+02  0.0000E+00  0.0000E+00  0.0000E+00  0.0000E+00  0.0000E+00  0.0000E+00  0.0000E+00  0.0000E+00  0.0000E+00  0.0000E+00  0.0000E+00  0.0000E+00  0.0000E+00  0.0000E+00  0.0000E+00  0.0000E+00  0.0000E+00  0.2295E-01  0.3627E-03  0.0000E+00  0.0000E+00  0.0000E+00  0.0000E+00  0.0000E+00  0.0000E+00  0.0000E+00  0.0000E+00  0.0000E+00  0.0000E+00  0.0000E+00  0.0000E+00  0.0000E+00  0.0000E+00
REACH    1        0     8  0.5790E+01  0.3953E-02  0.3864E-02  0.8871E-04  0.0000E+00  0.3640E-06  0.1602E+00  0.1475E+02  0.1539E-04  0.1253E-04  0.4944E-04  0.4648E-04  0.3364E+00  0.3279E+00  0.9577E-02  0.3643E-01  0.3212E-05  0.1739E-03  0.4573E-04  0.1842E-03  0.4801E-09  0.0000E+00  0.0000E+00  0.0000E+00  0.1234E+03  0.1201E+03  0.0000E+00  0.0000E+00  0.0000E+00  0.0000E+00  0.0000E+00  0.0000E+00  0.0000E+00  0.0000E+00  0.0000E+00  0.0000E+00  0.0000E+00  0.0000E+00  0.0000E+00  0.0000E+00  0.0000E+00  0.0000E+00  0.0000E+00  0.3645E+00  0.2307E-03  0.0000E+00  0.0000E+00  0.0000E+00  0.0000E+00  0.0000E+00  0.0000E+00  0.0000E+00  0.0000E+00  0.0000E+00  0.0000E+00  0.0000E+00  0.0000E+00  0.0000E+00  0.0000E+00
REACH    2        0     8  0.2233E+01  0.2043E-02  0.2014E-02  0.2906E-04  0.0000E+00  0.9917E-07  0.0000E+00  0.0000E+00  0.6527E-05  0.5065E-05  0.1957E-04  0.1884E-04  0.1095E+00  0.1075E+00  0.0000E+00  0.2588E-02  0.0000E+00  0.3212E-05  0.6762E-05  0.2421E-04  0.2109E-08  0.0000E+00  0.0000E+00  0.0000E+00  0.6422E+02  0.6266E+02  0.0000E+00  0.0000E+00  0.0000E+00  0.0000E+00  0.0000E+00  0.0000E+00  0.0000E+00  0.0000E+00  0.0000E+00  0.0000E+00  0.0000E+00  0.0000E+00  0.0000E+00  0.0000E+00  0.0000E+00  0.0000E+00  0.0000E+00  0.1101E+00  0.4305E-04  0.0000E+00  0.0000E+00  0.0000E+00  0.0000E+00  0.0000E+00  0.0000E+00  0.0000E+00  0.0000E+00  0.0000E+00  0.0000E+00  0.0000E+00  0.0000E+00  0.0000E+00  0.0000E+00
REACH    3        0     8  0.1834E+01  0.5912E-03  0.5727E-03  0.1857E-04  0.0000E+00  0.2647E-06  0.2647E-06  0.2208E-03  0.5603E-05  0.5156E-05  0.1680E-04  0.1512E-04  0.1196E+00  0.1174E+00  0.0000E+00  0.6988E-02  0.0000E+00  0.0000E+00  0.5641E-05  0.1627E-04  0.1137E-08  0.0000E+00  0.0000E+00  0.0000E+00  0.1852E+02  0.1776E+02  0.0000E+00  0.0000E+00  0.0000E+00  0.0000E+00  0.0000E+00  0.0000E+00  0.0000E+00  0.0000E+00  0.0000E+00  0.0000E+00  0.0000E+00  0.0000E+00  0.0000E+00  0.0000E+00  0.0000E+00  0.0000E+00  0.0000E+00  0.1244E+00  0.3138E-04  0.0000E+00  0.0000E+00  0.0000E+00  0.0000E+00  0.0000E+00  0.0000E+00  0.0000E+00  0.0000E+00  0.0000E+00  0.0000E+00  0.0000E+00  0.0000E+00  0.0000E+00  0.0000E+00
REACH    1        0     9  0.5790E+01  0.4284E-02  0.4207E-02  0.7749E-04  0.0000E+00  0.3437E-06  0.1855E+00  0.1600E+02  0.1544E-04  0.1333E-04  0.4848E-04  0.4581E-04  0.3801E+00  0.3749E+00  0.9486E-02  0.3532E-01  0.3770E-05  0.1821E-03  0.4146E-04  0.1647E-03  0.5729E-11  0.0000E+00  0.0000E+00  0.0000E+00  0.1287E+03  0.1260E+03  0.0000E+00  0.0000E+00  0.0000E+00  0.0000E+00  0.0000E+00  0.0000E+00  0.0000E+00  0.0000E+00  0.0000E+00  0.0000E+00  0.0000E+00  0.0000E+00  0.0000E+00  0.0000E+00  0.0000E+00  0.0000E+00  0.0000E+00  0.4104E+00  0.2105E-03  0.0000E+00  0.0000E+00  0.0000E+00  0.0000E+00  0.0000E+00  0.0000E+00  0.0000E+00  0.0000E+00  0.0000E+00  0.0000E+00  0.0000E+00  0.0000E+00  0.0000E+00  0.0000E+00
REACH    2        0     9  0.2233E+01  0.1979E-02  0.1954E-02  0.2538E-04  0.0000E+00  0.9597E-07  0.0000E+00  0.0000E+00  0.6314E-05  0.5277E-05  0.1894E-04  0.1822E-04  0.1211E+00  0.1200E+00  0.0000E+00  0.2702E-02  0.0000E+00  0.3549E-05  0.6321E-05  0.2047E-04  0.6628E-11  0.0000E+00  0.0000E+00  0.0000E+00  0.5988E+02  0.5851E+02  0.0000E+00  0.0000E+00  0.0000E+00  0.0000E+00  0.0000E+00  0.0000E+00  0.0000E+00  0.0000E+00  0.0000E+00  0.0000E+00  0.0000E+00  0.0000E+00  0.0000E+00  0.0000E+00  0.0000E+00  0.0000E+00  0.0000E+00  0.1227E+00  0.3869E-04  0.0000E+00  0.0000E+00  0.0000E+00  0.0000E+00  0.0000E+00  0.0000E+00  0.0000E+00  0.0000E+00  0.0000E+00  0.0000E+00  0.0000E+00  0.0000E+00  0.0000E+00  0.0000E+00
REACH    3        0     9  0.1834E+01  0.8940E-03  0.8778E-03  0.1622E-04  0.0000E+00  0.2562E-06  0.2477E-06  0.1294E-03  0.5421E-05  0.5164E-05  0.1626E-04  0.1528E-04  0.1355E+00  0.1332E+00  0.0000E+00  0.6783E-02  0.0000E+00  0.2212E-06  0.5426E-05  0.1599E-04  0.1182E-10  0.0000E+00  0.0000E+00  0.0000E+00  0.2705E+02  0.2629E+02  0.0000E+00  0.0000E+00  0.0000E+00  0.0000E+00  0.0000E+00  0.0000E+00  0.0000E+00  0.0000E+00  0.0000E+00  0.0000E+00  0.0000E+00  0.0000E+00  0.0000E+00  0.0000E+00  0.0000E+00  0.0000E+00  0.0000E+00  0.1400E+00  0.3127E-04  0.0000E+00  0.0000E+00  0.0000E+00  0.0000E+00  0.0000E+00  0.0000E+00  0.0000E+00  0.0000E+00  0.0000E+00  0.0000E+00  0.0000E+00  0.0000E+00  0.0000E+00  0.0000E+00
REACH    1        0    10  0.5790E+01  0.1668E-01  0.1662E-01  0.5814E-04  0.0000E+00  0.3156E+04  0.3490E+01  0.4878E+02  0.1570E+03  0.1563E+03  0.3507E+02  0.3483E+02  0.4251E+01  0.4228E+01  0.1029E+00  0.3096E+00  0.1665E-04  0.6229E-03  0.3792E-01  0.1117E+00  0.2158E+01  0.9742E+00  0.1377E+06  0.1337E+06  0.2460E+03  0.1512E+03  0.0000E+00  0.0000E+00  0.0000E+00  0.0000E+00  0.0000E+00  0.0000E+00  0.0000E+00  0.0000E+00  0.0000E+00  0.0000E+00  0.0000E+00  0.0000E+00  0.0000E+00  0.0000E+00  0.0000E+00  0.0000E+00  0.0000E+00  0.1608E+03  0.3494E+02  0.0000E+00  0.0000E+00  0.0000E+00  0.0000E+00  0.0000E+00  0.0000E+00  0.0000E+00  0.0000E+00  0.0000E+00  0.0000E+00  0.0000E+00  0.0000E+00  0.0000E+00  0.0000E+00
REACH    2        0    10  0.2233E+01  0.6249E-02  0.6230E-02  0.1905E-04  0.0000E+00  0.9662E+03  0.9502E+03  0.2135E+05  0.7127E+02  0.7101E+02  0.1586E+02  0.1578E+02  0.1549E+01  0.1542E+01  0.0000E+00  0.5281E-01  0.0000E+00  0.1262E-04  0.9037E-02  0.2609E-01  0.1692E+01  0.7039E+00  0.4543E+05  0.4449E+05  0.1442E+03  0.6518E+02  0.0000E+00  0.0000E+00  0.0000E+00  0.0000E+00  0.0000E+00  0.0000E+00  0.0000E+00  0.0000E+00  0.0000E+00  0.0000E+00  0.0000E+00  0.0000E+00  0.0000E+00  0.0000E+00  0.0000E+00  0.0000E+00  0.0000E+00  0.7261E+02  0.1581E+02  0.0000E+00  0.0000E+00  0.0000E+00  0.0000E+00  0.0000E+00  0.0000E+00  0.0000E+00  0.0000E+00  0.0000E+00  0.0000E+00  0.0000E+00  0.0000E+00  0.0000E+00  0.0000E+00
REACH    3        0    10  0.1834E+01  0.5164E-02  0.5148E-02  0.1218E-04  0.0000E+00  0.1108E+04  0.1094E+04  0.2803E+05  0.4708E+02  0.4695E+02  0.1055E+02  0.1051E+02  0.1426E+01  0.1421E+01  0.0000E+00  0.5012E-01  0.0000E+00  0.4031E-05  0.2721E-02  0.7877E-02  0.1076E+01  0.5798E+00  0.4816E+05  0.4741E+05  0.1209E+03  0.5344E+02  0.0000E+00  0.0000E+00  0.0000E+00  0.0000E+00  0.0000E+00  0.0000E+00  0.0000E+00  0.0000E+00  0.0000E+00  0.0000E+00  0.0000E+00  0.0000E+00  0.0000E+00  0.0000E+00  0.0000E+00  0.0000E+00  0.0000E+00  0.4842E+02  0.1052E+02  0.0000E+00  0.0000E+00  0.0000E+00  0.0000E+00  0.0000E+00  0.0000E+00  0.0000E+00  0.0000E+00  0.0000E+00  0.0000E+00  0.0000E+00  0.0000E+00  0.0000E+00  0.0000E+00
REACH    1        0    11  0.5790E+01  0.1581E-01  0.1577E-01  0.3763E-04  0.0000E+00  0.1409E-03  0.1622E+00  0.5917E+02  0.6103E-01  0.6169E-01  0.1314E-01  0.1324E-01  0.6578E+00  0.6581E+00  0.3142E-03  0.1116E-02  0.0000E+00  0.2450E-05  0.3643E-03  0.7101E-03  0.2969E-03  0.0000E+00  0.7668E-04  0.3198E-03  0.3128E+02  0.3110E+02  0.0000E+00  0.0000E+00  0.0000E+00  0.0000E+00  0.0000E+00  0.0000E+00  0.0000E+00  0.0000E+00  0.0000E+00  0.0000E+00  0.0000E+00  0.0000E+00  0.0000E+00  0.0000E+00  0.0000E+00  0.0000E+00  0.0000E+00  0.7210E+00  0.1395E-01  0.0000E+00  0.0000E+00  0.0000E+00  0.0000E+00  0.0000E+00  0.0000E+00  0.0000E+00  0.0000E+00  0.0000E+00  0.0000E+00  0.0000E+00  0.0000E+00  0.0000E+00  0.0000E+00
REACH    2        0    11  0.2233E+01  0.5611E-02  0.5599E-02  0.1235E-04  0.0000E+00  0.5057E-04  0.4897E-04  0.4907E-01  0.3301E-01  0.3345E-01  0.7129E-02  0.7204E-02  0.2252E+00  0.2253E+00  0.0000E+00  0.4287E-04  0.0000E+00  0.0000E+00  0.8079E-04  0.2121E-03  0.3776E-03  0.0000E+00  0.0000E+00  0.6471E-04  0.1118E+02  0.1104E+02  0.0000E+00  0.0000E+00  0.0000E+00  0.0000E+00  0.0000E+00  0.0000E+00  0.0000E+00  0.0000E+00  0.0000E+00  0.0000E+00  0.0000E+00  0.0000E+00  0.0000E+00  0.0000E+00  0.0000E+00  0.0000E+00  0.0000E+00  0.2588E+00  0.7416E-02  0.0000E+00  0.0000E+00  0.0000E+00  0.0000E+00  0.0000E+00  0.0000E+00  0.0000E+00  0.0000E+00  0.0000E+00  0.0000E+00  0.0000E+00  0.0000E+00  0.0000E+00  0.0000E+00
REACH    3        0    11  0.1834E+01  0.5077E-02  0.5070E-02  0.7896E-05  0.0000E+00  0.3300E-04  0.3225E-04  0.3558E-01  0.9171E-02  0.9207E-02  0.1974E-02  0.1978E-02  0.2250E+00  0.2250E+00  0.0000E+00  0.2713E-03  0.0000E+00  0.0000E+00  0.3465E-04  0.9394E-04  0.2587E-03  0.0000E+00  0.0000E+00  0.1197E-04  0.1012E+02  0.9996E+01  0.0000E+00  0.0000E+00  0.0000E+00  0.0000E+00  0.0000E+00  0.0000E+00  0.0000E+00  0.0000E+00  0.0000E+00  0.0000E+00  0.0000E+00  0.0000E+00  0.0000E+00  0.0000E+00  0.0000E+00  0.0000E+00  0.0000E+00  0.2345E+00  0.2072E-02  0.0000E+00  0.0000E+00  0.0000E+00  0.0000E+00  0.0000E+00  0.0000E+00  0.0000E+00  0.0000E+00  0.0000E+00  0.0000E+00  0.0000E+00  0.0000E+00  0.0000E+00  0.0000E+00
REACH    1        0  1990  0.5790E+01  0.4802E-01  0.4794E-01  0.7733E-04  0.0000E+00  0.9188E+05  0.2016E+03  0.7641E+02  0.1438E+05  0.1436E+05  0.3167E+04  0.3158E+04  0.1331E+03  0.1328E+03  0.4834E+01  0.1467E+02  0.7865E-04  0.9123E-02  0.1938E+01  0.5718E+01  0.3014E+03  0.2379E+03  0.4219E+07  0.4160E+07  0.7447E+04  0.5362E+04  0.0000E+00  0.0000E+00  0.0000E+00  0.0000E+00  0.0000E+00  0.0000E+00  0.0000E+00  0.0000E+00  0.0000E+00  0.0000E+00  0.0000E+00  0.0000E+00  0.0000E+00  0.0000E+00  0.0000E+00  0.0000E+00  0.0000E+00  0.1450E+05  0.3164E+04  0.0000E+00  0.0000E+00  0.0000E+00  0.0000E+00  0.0000E+00  0.0000E+00  0.0000E+00  0.0000E+00  0.0000E+00  0.0000E+00  0.0000E+00  0.0000E+00  0.0000E+00  0.0000E+00
REACH    2        0  1990  0.2233E+01  0.1879E-01  0.1877E-01  0.2541E-04  0.0000E+00  0.2719E+05  0.2698E+05  0.1297E+05  0.5040E+04  0.5033E+04  0.1109E+04  0.1107E+04  0.4414E+02  0.4407E+02  0.0000E+00  0.2720E+01  0.0000E+00  0.6170E-04  0.3818E+00  0.1077E+01  0.1220E+03  0.9869E+02  0.1342E+07  0.1328E+07  0.4443E+04  0.2388E+04  0.0000E+00  0.0000E+00  0.0000E+00  0.0000E+00  0.0000E+00  0.0000E+00  0.0000E+00  0.0000E+00  0.0000E+00  0.0000E+00  0.0000E+00  0.0000E+00  0.0000E+00  0.0000E+00  0.0000E+00  0.0000E+00  0.0000E+00  0.5080E+04  0.1108E+04  0.0000E+00  0.0000E+00  0.0000E+00  0.0000E+00  0.0000E+00  0.0000E+00  0.0000E+00  0.0000E+00  0.0000E+00  0.0000E+00  0.0000E+00  0.0000E+00  0.0000E+00  0.0000E+00
REACH    3        0  1990  0.1834E+01  0.1507E-01  0.1505E-01  0.1626E-04  0.0000E+00  0.3262E+05  0.3242E+05  0.1645E+05  0.4855E+04  0.4850E+04  0.1070E+04  0.1068E+04  0.4634E+02  0.4629E+02  0.0000E+00  0.2114E+01  0.0000E+00  0.1695E-04  0.2139E+00  0.6302E+00  0.1135E+03  0.9737E+02  0.1466E+07  0.1455E+07  0.3515E+04  0.1734E+04  0.0000E+00  0.0000E+00  0.0000E+00  0.0000E+00  0.0000E+00  0.0000E+00  0.0000E+00  0.0000E+00  0.0000E+00  0.0000E+00  0.0000E+00  0.0000E+00  0.0000E+00  0.0000E+00  0.0000E+00  0.0000E+00  0.0000E+00  0.4899E+04  0.1069E+04  0.0000E+00  0.0000E+00  0.0000E+00  0.0000E+00  0.0000E+00  0.0000E+00  0.0000E+00  0.0000E+00  0.0000E+00  0.0000E+00  0.0000E+00  0.0000E+00  0.0000E+00  0.0000E+00
REACH    1        0   9.5  0.5790E+01  0.1259E+00  0.1259E+00  0.7475E-04  0.0000E+00  0.4435E+06  0.1033E+04  0.1196E+03  0.2747E+05  0.2743E+05  0.6044E+04  0.6031E+04  0.3872E+03  0.3860E+03  0.7311E+01  0.2217E+02  0.1049E-03  0.7551E-02  0.5774E+01  0.1316E+02  0.7317E+03  0.6389E+03  0.2271E+08  0.2251E+08  0.1711E+05  0.1067E+05  0.0000E+00  0.0000E+00  0.0000E+00  0.0000E+00  0.0000E+00  0.0000E+00  0.0000E+00  0.0000E+00  0.0000E+00  0.0000E+00  0.0000E+00  0.0000E+00  0.0000E+00  0.0000E+00  0.0000E+00  0.0000E+00  0.0000E+00  0.2784E+05  0.6044E+04  0.0000E+00  0.0000E+00  0.0000E+00  0.0000E+00  0.0000E+00  0.0000E+00  0.0000E+00  0.0000E+00  0.0000E+00  0.0000E+00  0.0000E+00  0.0000E+00  0.0000E+00  0.0000E+00
REACH    2        0   9.5  0.2233E+01  0.4799E-01  0.4796E-01  0.2485E-04  0.0000E+00  0.1310E+06  0.1303E+06  0.2019E+05  0.1028E+05  0.1027E+05  0.2262E+04  0.2258E+04  0.1282E+03  0.1278E+03  0.0000E+00  0.3986E+01  0.0000E+00  0.7521E-04  0.1624E+01  0.3268E+01  0.3012E+03  0.2655E+03  0.7232E+07  0.7185E+07  0.1128E+05  0.4646E+04  0.0000E+00  0.0000E+00  0.0000E+00  0.0000E+00  0.0000E+00  0.0000E+00  0.0000E+00  0.0000E+00  0.0000E+00  0.0000E+00  0.0000E+00  0.0000E+00  0.0000E+00  0.0000E+00  0.0000E+00  0.0000E+00  0.0000E+00  0.1040E+05  0.2261E+04  0.0000E+00  0.0000E+00  0.0000E+00  0.0000E+00  0.0000E+00  0.0000E+00  0.0000E+00  0.0000E+00  0.0000E+00  0.0000E+00  0.0000E+00  0.0000E+00  0.0000E+00  0.0000E+00
REACH    3        0   9.5  0.1834E+01  0.4025E-01  0.4024E-01  0.1601E-04  0.0000E+00  0.1573E+06  0.1567E+06  0.2427E+05  0.8961E+04  0.8954E+04  0.1973E+04  0.1971E+04  0.1354E+03  0.1351E+03  0.0000E+00  0.3325E+01  0.0000E+00  0.2969E-04  0.6996E+00  0.1639E+01  0.2542E+03  0.2318E+03  0.7878E+07  0.7838E+07  0.9572E+04  0.3496E+04  0.0000E+00  0.0000E+00  0.0000E+00  0.0000E+00  0.0000E+00  0.0000E+00  0.0000E+00  0.0000E+00  0.0000E+00  0.0000E+00  0.0000E+00  0.0000E+00  0.0000E+00  0.0000E+00  0.0000E+00  0.0000E+00  0.0000E+00  0.9093E+04  0.1973E+04  0.0000E+00  0.0000E+00  0.0000E+00  0.0000E+00  0.0000E+00  0.0000E+00  0.0000E+00  0.0000E+00  0.0000E+00  0.0000E+00  0.0000E+00  0.0000E+00  0.0000E+00  0.0000E+00
