1
    SWAT Nov 14  VER 2023/Rev 692                                                                        0/ 0/   0      0: 0: 0

    General Input/Output section (file.cio):                                        
    5/19/2025 12:00:00 AM ARCGIS-SWAT interface AV                                  
                                                                                    


LULC  HRU       GIS  SUB  MGT  MON   AREAkm2  PRECIPmm SNOFALLmm SNOMELTmm     IRRmm     PETmm      ETmm SW_INITmm  SW_ENDmm    PERCmm GW_RCHGmm DA_RCHGmm   REVAPmm  SA_IRRmm  DA_IRRmm   SA_STmm   DA_STmmSURQ_GENmmSURQ_CNTmm   TLOSSmm LATQGENmm    GW_Qmm    WYLDmm   DAILYCN TMP_AVdgC TMP_MXdgC TMP_MNdgCSOL_TMPdgCSOLARMJ/m2  SYLDt/ha  USLEt/haN_APPkg/haP_APPkg/haNAUTOkg/haPAUTOkg/ha NGRZkg/ha PGRZkg/haNCFRTkg/haPCFRTkg/haNRAINkg/ha NFIXkg/ha F-MNkg/ha A-MNkg/ha A-SNkg/ha F-MPkg/haAO-LPkg/ha L-APkg/ha A-SPkg/ha DNITkg/ha  NUPkg/ha  PUPkg/ha ORGNkg/ha ORGPkg/ha SEDPkg/haNSURQkg/haNLATQkg/ha NO3Lkg/haNO3GWkg/ha SOLPkg/ha P_GWkg/ha    W_STRS  TMP_STRS    N_STRS    P_STRS  BIOMt/ha       LAI   YLDt/ha  BACTPct   BACTLPct WTAB_CLIm WTAB_SOLm     SNOmm CMUPkg/haCMTOTkg/ha   QTILEmm TNO3kg/ha LNO3kg/ha  GW_Q_Dmm LATQCNTmm TVAPkg/ha
PJNL    1 000010001    1    0    4.13850E+01     3.100     0.000     0.000     0.000    19.115     6.661    21.203    61.840     0.000     0.000     0.000     1.720     0.000     0.000   998.280  2000.000     0.000     0.000     0.000     0.028     0.000     0.028    31.532     1.600     4.087    -0.887     3.643     4.669     0.000     0.000     0.000     0.000     0.000     0.000     0.000     0.000     0.000     0.000     0.000     0.000     0.000     0.251    -0.001     0.000     0.043     0.663     8.239     0.000     0.000     0.000     0.000     0.000     0.000     0.000     0.000     0.000     0.000     0.000     0.000     0.000     0.000     0.000     0.000     0.000     0.000     0.000 .00000E+00 .00000E+00 0.191E+01 0.429E+04 0.000E+00 0.000E+00 0.000E+00 0.000E+00 0.000E+00 0.496E-03     0.000     0.028     0.000
PJNL    2 000010002    1    0    4.33594E-01     3.100     0.000     0.000     0.000    19.115     6.665    21.207    61.865     0.000     0.000     0.000     1.720     0.000     0.000   998.280  2000.000     0.000     0.000     0.000     0.000     0.000     0.000    31.532     1.600     4.087    -0.887     3.643     4.669     0.000     0.000     0.000     0.000     0.000     0.000     0.000     0.000     0.000     0.000     0.000     0.000     0.000     0.251    -0.001     0.000     0.043     0.663     8.240     0.000     0.000     0.000     0.000     0.000     0.000     0.000     0.000     0.000     0.000     0.000     0.000     0.000     0.000     0.000     0.000     0.000     0.000     0.000 .00000E+00 .00000E+00 0.191E+01 0.429E+04 0.000E+00 0.000E+00 0.000E+00 0.000E+00 0.000E+00 0.000E+00     0.000     0.000     0.000
WETN    3 000010003    1    0    4.71719E-01     3.100     0.000     0.000     0.000    19.115     6.665    21.207    61.865     0.000     0.000     0.000     0.382     0.000     0.000   999.618  2000.000     0.000     0.000     0.000     0.000     0.000     0.000    31.532     1.600     4.087    -0.887     3.643     4.669     0.000     0.000     0.000     0.000     0.000     0.000     0.000     0.000     0.000     0.000     0.000     0.000     0.000     0.251    -0.001     0.000     0.043     0.663     8.240     0.000     0.000     0.000     0.000     0.000     0.000     0.000     0.000     0.000     0.000     0.000     0.000     0.000     0.000     0.000     0.000     0.000     0.000     0.000 .00000E+00 .00000E+00 0.191E+01 0.429E+04 0.000E+00 0.000E+00 0.000E+00 0.000E+00 0.000E+00 0.000E+00     0.000     0.000     0.000
BARR    4 000010004    1    0    4.22984E+00     3.100     0.000     0.000     0.000    19.115     6.660    21.202    61.837     0.000     0.000     0.000     2.972     0.000     0.000   997.028  2000.000     0.000     0.000     0.000     0.031     0.000     0.031    31.532     1.600     4.087    -0.887     3.643     4.669     0.000     0.000     0.000     0.000     0.000     0.000     0.000     0.000     0.000     0.000     0.000     0.000     0.000     0.251    -0.001     0.000     0.043     0.663     8.239     0.000     0.000     0.000     0.000     0.000     0.000     0.000     0.001     0.000     0.000     0.000     0.000     0.000     0.000     0.000     0.000     0.000     0.000     0.000 .00000E+00 .00000E+00 0.191E+01 0.429E+04 0.000E+00 0.000E+00 0.000E+00 0.000E+00 0.000E+00 0.547E-03     0.000     0.031     0.000
BARR    5 000010005    1    0    4.24999E-02     3.100     0.000     0.000     0.000    19.115     6.665    21.207    61.865     0.000     0.000     0.000     2.972     0.000     0.000   997.028  2000.000     0.000     0.000     0.000     0.000     0.000     0.000    31.532     1.600     4.087    -0.887     3.643     4.669     0.000     0.000     0.000     0.000     0.000     0.000     0.000     0.000     0.000     0.000     0.000     0.000     0.000     0.251    -0.001     0.000     0.043     0.663     8.240     0.000     0.000     0.000     0.000     0.000     0.000     0.000     0.000     0.000     0.000     0.000     0.000     0.000     0.000     0.000     0.000     0.000     0.000     0.000 .00000E+00 .00000E+00 0.191E+01 0.429E+04 0.000E+00 0.000E+00 0.000E+00 0.000E+00 0.000E+00 0.000E+00     0.000     0.000     0.000
WETN    6 000020001    2    0    4.22531E+00     3.100     0.000     0.000     0.000    19.157     6.673    21.205    61.857     0.000     0.000     0.000     0.383     0.000     0.000   999.617  2000.000     0.000     0.000     0.000     0.000     0.000     0.000    31.532     1.600     4.087    -0.887     3.643     4.669     0.000     0.000     0.000     0.000     0.000     0.000     0.000     0.000     0.000     0.000     0.000     0.000     0.000     0.251    -0.001     0.000     0.043     0.663     8.240     0.000     0.000     0.000     0.000     0.000     0.000     0.000     0.000     0.000     0.000     0.000     0.000     0.000     0.000     0.000     0.000     0.000     0.000     0.000 .00000E+00 .00000E+00 0.191E+01 0.429E+04 0.000E+00 0.000E+00 0.000E+00 0.000E+00 0.000E+00 0.000E+00     0.000     0.000     0.000
PJNL    7 000020002    2    0    4.90938E+00     3.100     0.000     0.000     0.000    19.157     6.670    21.202    61.838     0.000     0.000     0.000     1.724     0.000     0.000   998.276  2000.000     0.000     0.000     0.000     0.021     0.000     0.021    31.532     1.600     4.087    -0.887     3.643     4.669     0.000     0.000     0.000     0.000     0.000     0.000     0.000     0.000     0.000     0.000     0.000     0.000     0.000     0.251    -0.001     0.000     0.043     0.663     8.239     0.000     0.000     0.000     0.000     0.000     0.000     0.000     0.000     0.000     0.000     0.000     0.000     0.000     0.000     0.000     0.000     0.000     0.000     0.000 .00000E+00 .00000E+00 0.191E+01 0.429E+04 0.000E+00 0.000E+00 0.000E+00 0.000E+00 0.000E+00 0.363E-03     0.000     0.021     0.000
PJNL    8 000020003    2    0    4.27187E-01     3.100     0.000     0.000     0.000    19.157     6.673    21.205    61.857     0.000     0.000     0.000     1.724     0.000     0.000   998.276  2000.000     0.000     0.000     0.000     0.000     0.000     0.000    31.532     1.600     4.087    -0.887     3.643     4.669     0.000     0.000     0.000     0.000     0.000     0.000     0.000     0.000     0.000     0.000     0.000     0.000     0.000     0.251    -0.001     0.000     0.043     0.663     8.240     0.000     0.000     0.000     0.000     0.000     0.000     0.000     0.000     0.000     0.000     0.000     0.000     0.000     0.000     0.000     0.000     0.000     0.000     0.000 .00000E+00 .00000E+00 0.191E+01 0.429E+04 0.000E+00 0.000E+00 0.000E+00 0.000E+00 0.000E+00 0.000E+00     0.000     0.000     0.000
BARR    9 000020004    2    0    4.10641E+01     3.100     0.000     0.000     0.000    19.157     6.670    21.201    61.834     0.000     0.000     0.000     2.979     0.000     0.000   997.021  2000.000     0.000     0.000     0.000     0.025     0.000     0.025    31.532     1.600     4.087    -0.887     3.643     4.669     0.000     0.000     0.000     0.000     0.000     0.000     0.000     0.000     0.000     0.000     0.000     0.000     0.000     0.251    -0.001     0.000     0.043     0.663     8.239     0.000     0.000     0.000     0.000     0.000     0.000     0.000     0.000     0.000     0.000     0.000     0.000     0.000     0.000     0.000     0.000     0.000     0.000     0.000 .00000E+00 .00000E+00 0.191E+01 0.429E+04 0.000E+00 0.000E+00 0.000E+00 0.000E+00 0.000E+00 0.442E-03     0.000     0.025     0.000
BARR   10 000020005    2    0    4.68751E-02     3.100     0.000     0.000     0.000    19.157     6.673    21.205    61.857     0.000     0.000     0.000     2.979     0.000     0.000   997.021  2000.000     0.000     0.000     0.000     0.000     0.000     0.000    31.532     1.600     4.087    -0.887     3.643     4.669     0.000     0.000     0.000     0.000     0.000     0.000     0.000     0.000     0.000     0.000     0.000     0.000     0.000     0.251    -0.001     0.000     0.043     0.663     8.240     0.000     0.000     0.000     0.000     0.000     0.000     0.000     0.000     0.000     0.000     0.000     0.000     0.000     0.000     0.000     0.000     0.000     0.000     0.000 .00000E+00 .00000E+00 0.191E+01 0.429E+04 0.000E+00 0.000E+00 0.000E+00 0.000E+00 0.000E+00 0.000E+00     0.000     0.000     0.000
PJNL   11 000030001    3    0    4.12831E+01     3.100     0.000     0.000     0.000    19.169     7.154    21.124    61.348     0.000     0.000     0.000     1.725     0.000     0.000   998.275  2000.000     0.000     0.000     0.000     0.026     0.000     0.027    31.527     1.600     4.087    -0.887     3.644     4.669     0.000     0.000     0.000     0.000     0.000     0.000     0.000     0.000     0.000     0.000     0.000     0.000     0.000     0.251    -0.001     0.000     0.043     0.659     8.218     0.000     0.000     0.000     0.000     0.000     0.000     0.000     0.000     0.000     0.000     0.000     0.000     0.000     0.000     0.000     0.000     0.000     0.000     0.000 .00000E+00 .00000E+00 0.191E+01 0.429E+04 0.000E+00 0.000E+00 0.000E+00 0.000E+00 0.000E+00 0.471E-03     0.000     0.026     0.000
PJNL   12 000030002    3    0    4.19844E-01     3.100     0.000     0.000     0.000    19.169     7.158    21.129    61.372     0.000     0.000     0.000     1.725     0.000     0.000   998.275  2000.000     0.000     0.000     0.000     0.000     0.000     0.000    31.527     1.600     4.087    -0.887     3.644     4.669     0.000     0.000     0.000     0.000     0.000     0.000     0.000     0.000     0.000     0.000     0.000     0.000     0.000     0.251    -0.001     0.000     0.043     0.659     8.218     0.000     0.000     0.000     0.000     0.000     0.000     0.000     0.000     0.000     0.000     0.000     0.000     0.000     0.000     0.000     0.000     0.000     0.000     0.000 .00000E+00 .00000E+00 0.191E+01 0.429E+04 0.000E+00 0.000E+00 0.000E+00 0.000E+00 0.000E+00 0.000E+00     0.000     0.000     0.000
BARR   13 000030003    3    0    4.42609E+00     3.100     0.000     0.000     0.000    19.169     6.672    21.200    61.829     0.000     0.000     0.000     2.981     0.000     0.000   997.019  2000.000     0.000     0.000     0.000     0.028     0.000     0.028    31.532     1.600     4.087    -0.887     3.643     4.669     0.000     0.000     0.000     0.000     0.000     0.000     0.000     0.000     0.000     0.000     0.000     0.000     0.000     0.251    -0.001     0.000     0.043     0.663     8.239     0.000     0.000     0.000     0.000     0.000     0.000     0.000     0.000     0.000     0.000     0.000     0.000     0.000     0.000     0.000     0.000     0.000     0.000     0.000 .00000E+00 .00000E+00 0.191E+01 0.429E+04 0.000E+00 0.000E+00 0.000E+00 0.000E+00 0.000E+00 0.491E-03     0.000     0.028     0.000
BARR   14 000030004    3    0    4.29688E-02     3.100     0.000     0.000     0.000    19.169     6.676    21.205    61.854     0.000     0.000     0.000     2.981     0.000     0.000   997.019  2000.000     0.000     0.000     0.000     0.000     0.000     0.000    31.532     1.600     4.087    -0.887     3.643     4.669     0.000     0.000     0.000     0.000     0.000     0.000     0.000     0.000     0.000     0.000     0.000     0.000     0.000     0.251    -0.001     0.000     0.043     0.663     8.240     0.000     0.000     0.000     0.000     0.000     0.000     0.000     0.000     0.000     0.000     0.000     0.000     0.000     0.000     0.000     0.000     0.000     0.000     0.000 .00000E+00 .00000E+00 0.191E+01 0.429E+04 0.000E+00 0.000E+00 0.000E+00 0.000E+00 0.000E+00 0.000E+00     0.000     0.000     0.000
WETN   15 000030005    3    0    4.25625E-01     3.100     0.000     0.000     0.000    19.169     6.676    21.205    61.854     0.000     0.000     0.000     0.383     0.000     0.000   999.617  2000.000     0.000     0.000     0.000     0.000     0.000     0.000    31.532     1.600     4.087    -0.887     3.643     4.669     0.000     0.000     0.000     0.000     0.000     0.000     0.000     0.000     0.000     0.000     0.000     0.000     0.000     0.251    -0.001     0.000     0.043     0.663     8.240     0.000     0.000     0.000     0.000     0.000     0.000     0.000     0.000     0.000     0.000     0.000     0.000     0.000     0.000     0.000     0.000     0.000     0.000     0.000 .00000E+00 .00000E+00 0.191E+01 0.429E+04 0.000E+00 0.000E+00 0.000E+00 0.000E+00 0.000E+00 0.000E+00     0.000     0.000     0.000
ES10   16 000030006    3    0    4.33750E-01     3.100     0.000     0.000     0.000    19.169     6.672    21.201    61.832     0.000     0.000     0.000     0.383     0.000     0.000   999.617  2000.000     0.000     0.000     0.000     0.025     0.000     0.025    31.532     1.600     4.087    -0.887     3.643     4.669     0.000     0.000     0.000     0.000     0.000     0.000     0.000     0.000     0.000     0.000     0.000     0.000     0.000     0.251    -0.001     0.000     0.043     0.663     8.239     0.000     0.000     0.000     0.000     0.000     0.000     0.000     0.000     0.000     0.000     0.000     0.000     0.000     0.000     0.000     0.000     0.000     0.000     0.000 .00000E+00 .00000E+00 0.191E+01 0.429E+04 0.000E+00 0.000E+00 0.000E+00 0.000E+00 0.000E+00 0.434E-03     0.000     0.025     0.000
ES9    17 000030007    3    0    4.15625E-01     3.100     0.000     0.000     0.000    19.169     6.672    21.201    61.832     0.000     0.000     0.000     0.383     0.000     0.000   999.617  2000.000     0.000     0.000     0.000     0.025     0.000     0.025    31.532     1.600     4.087    -0.887     3.643     4.669     0.000     0.000     0.000     0.000     0.000     0.000     0.000     0.000     0.000     0.000     0.000     0.000     0.000     0.251    -0.001     0.000     0.043     0.663     8.239     0.000     0.000     0.000     0.000     0.000     0.000     0.000     0.000     0.000     0.000     0.000     0.000     0.000     0.000     0.000     0.000     0.000     0.000     0.000 .00000E+00 .00000E+00 0.191E+01 0.429E+04 0.000E+00 0.000E+00 0.000E+00 0.000E+00 0.000E+00 0.440E-03     0.000     0.025     0.000
ES9    18 000030008    3    0    4.31258E-03     3.100     0.000     0.000     0.000    19.169     6.676    21.205    61.854     0.000     0.000     0.000     0.383     0.000     0.000   999.617  2000.000     0.000     0.000     0.000     0.000     0.000     0.000    31.532     1.600     4.087    -0.887     3.643     4.669     0.000     0.000     0.000     0.000     0.000     0.000     0.000     0.000     0.000     0.000     0.000     0.000     0.000     0.251    -0.001     0.000     0.043     0.663     8.240     0.000     0.000     0.000     0.000     0.000     0.000     0.000     0.000     0.000     0.000     0.000     0.000     0.000     0.000     0.000     0.000     0.000     0.000     0.000 .00000E+00 .00000E+00 0.191E+01 0.429E+04 0.000E+00 0.000E+00 0.000E+00 0.000E+00 0.000E+00 0.000E+00     0.000     0.000     0.000
ES11   19 000030009    3    0    4.18281E-01     3.100     0.000     0.000     0.000    19.169     6.671    21.200    61.825     0.000     0.000     0.000     0.383     0.000     0.000   999.617  2000.000     0.000     0.000     0.000     0.032     0.000     0.032    31.532     1.600     4.087    -0.887     3.643     4.669     0.000     0.000     0.000     0.000     0.000     0.000     0.000     0.000     0.000     0.000     0.000     0.000     0.000     0.251    -0.001     0.000     0.043     0.663     8.239     0.000     0.000     0.000     0.000     0.000     0.000     0.000     0.001     0.000     0.000     0.000     0.000     0.000     0.000     0.000     0.000     0.000     0.000     0.000 .00000E+00 .00000E+00 0.191E+01 0.429E+04 0.000E+00 0.000E+00 0.000E+00 0.000E+00 0.000E+00 0.574E-03     0.000     0.032     0.000
ES12   20 000030010    3    0    4.68751E-02     3.100     0.000     0.000     0.000    19.169     6.670    21.199    61.820     0.000     0.000     0.000     0.383     0.000     0.000   999.617  2000.000     0.000     0.000     0.000     0.038     0.000     0.038    31.532     1.600     4.087    -0.887     3.643     4.669     0.000     0.000     0.000     0.000     0.000     0.000     0.000     0.000     0.000     0.000     0.000     0.000     0.000     0.251    -0.001     0.000     0.043     0.663     8.238     0.000     0.000     0.000     0.000     0.000     0.000     0.000     0.001     0.000     0.000     0.000     0.000     0.000     0.000     0.000     0.000     0.000     0.000     0.000 .00000E+00 .00000E+00 0.191E+01 0.429E+04 0.000E+00 0.000E+00 0.000E+00 0.000E+00 0.000E+00 0.675E-03     0.000     0.038     0.000
ES13   21 000030011    3    0    4.18749E-02     3.100     0.000     0.000     0.000    19.169     6.670    21.199    61.819     0.000     0.000     0.000     0.383     0.000     0.000   999.617  2000.000     0.000     0.000     0.000     0.039     0.000     0.039    31.532     1.600     4.087    -0.887     3.643     4.669     0.000     0.000     0.000     0.000     0.000     0.000     0.000     0.000     0.000     0.000     0.000     0.000     0.000     0.251    -0.001     0.000     0.043     0.663     8.238     0.000     0.000     0.000     0.000     0.000     0.000     0.000     0.001     0.000     0.000     0.000     0.000     0.000     0.000     0.000     0.000     0.000     0.000     0.000 .00000E+00 .00000E+00 0.191E+01 0.429E+04 0.000E+00 0.280E+04 0.176E+06 0.000E+00 0.000E+00 0.690E-03     0.000     0.039     0.000
PJNL    1 000010001    1    0    5.13850E+01    11.300     0.000     0.000     0.000    53.156    14.997    58.327    57.593     0.000     0.000     0.000     4.784     0.000     0.000   993.496  2000.000     0.000     0.000     0.000     0.483     0.000     0.483    94.251     5.565    13.971    -2.842     8.514    14.315     0.000     0.000     0.000     0.000     0.000     0.000     0.000     0.000     0.000     0.000     0.000     0.000     0.000     0.718    -0.009     0.000     0.123     2.843     9.194     0.000     0.000     0.000     0.000     0.000     0.000     0.000     0.012     0.000     0.000     0.000     0.000     0.000     0.000     0.000     0.000     0.000     0.000     0.000 .00000E+00 .00000E+00 0.248E+01 0.429E+04 0.000E+00 0.000E+00 0.000E+00 0.000E+00 0.000E+00 0.118E-01     0.000     0.483     0.000
PJNL    2 000010002    1    0    5.33594E-01    11.300     0.000     0.000     0.000    53.156    15.040    58.457    58.126     0.000     0.000     0.000     4.784     0.000     0.000   993.496  2000.000     0.000     0.000     0.000     0.000     0.000     0.000    94.260     5.565    13.971    -2.842     8.512    14.315     0.000     0.000     0.000     0.000     0.000     0.000     0.000     0.000     0.000     0.000     0.000     0.000     0.000     0.718    -0.009     0.000     0.123     2.845     9.202     0.000     0.000     0.000     0.000     0.000     0.000     0.000     0.000     0.000     0.000     0.000     0.000     0.000     0.000     0.000     0.000     0.000     0.000     0.000 .00000E+00 .00000E+00 0.248E+01 0.429E+04 0.000E+00 0.000E+00 0.000E+00 0.000E+00 0.000E+00 0.000E+00     0.000     0.000     0.000
WETN    3 000010003    1    0    5.71719E-01    11.300     0.000     0.000     0.000    53.156    15.040    58.457    58.126     0.000     0.000     0.000     1.063     0.000     0.000   998.555  2000.000     0.000     0.000     0.000     0.000     0.000     0.000    94.260     5.565    13.971    -2.842     8.512    14.315     0.000     0.000     0.000     0.000     0.000     0.000     0.000     0.000     0.000     0.000     0.000     0.000     0.000     0.718    -0.009     0.000     0.123     2.845     9.202     0.000     0.000     0.000     0.000     0.000     0.000     0.000     0.000     0.000     0.000     0.000     0.000     0.000     0.000     0.000     0.000     0.000     0.000     0.000 .00000E+00 .00000E+00 0.248E+01 0.429E+04 0.000E+00 0.000E+00 0.000E+00 0.000E+00 0.000E+00 0.000E+00     0.000     0.000     0.000
BARR    4 000010004    1    0    5.22984E+00    11.300     0.000     0.000     0.000    53.156    14.993    58.313    57.537     0.000     0.000     0.000     8.266     0.000     0.000   988.762  2000.000     0.000     0.000     0.000     0.534     0.000     0.534    94.250     5.565    13.971    -2.842     8.515    14.315     0.000     0.000     0.000     0.000     0.000     0.000     0.000     0.000     0.000     0.000     0.000     0.000     0.000     0.718    -0.009     0.000     0.123     2.842     9.193     0.000     0.000     0.000     0.000     0.000     0.000     0.000     0.013     0.000     0.000     0.000     0.000     0.000     0.000     0.000     0.000     0.000     0.000     0.000 .00000E+00 .00000E+00 0.248E+01 0.429E+04 0.000E+00 0.000E+00 0.000E+00 0.000E+00 0.000E+00 0.130E-01     0.000     0.534     0.000
BARR    5 000010005    1    0    5.24999E-02    11.300     0.000     0.000     0.000    53.156    15.040    58.457    58.126     0.000     0.000     0.000     8.266     0.000     0.000   988.762  2000.000     0.000     0.000     0.000     0.000     0.000     0.000    94.260     5.565    13.971    -2.842     8.512    14.315     0.000     0.000     0.000     0.000     0.000     0.000     0.000     0.000     0.000     0.000     0.000     0.000     0.000     0.718    -0.009     0.000     0.123     2.845     9.202     0.000     0.000     0.000     0.000     0.000     0.000     0.000     0.000     0.000     0.000     0.000     0.000     0.000     0.000     0.000     0.000     0.000     0.000     0.000 .00000E+00 .00000E+00 0.248E+01 0.429E+04 0.000E+00 0.000E+00 0.000E+00 0.000E+00 0.000E+00 0.000E+00     0.000     0.000     0.000
WETN    6 000020001    2    0    5.22531E+00    11.300     0.000     0.000     0.000    53.353    15.072    58.433    58.085     0.000     0.000     0.000     1.067     0.000     0.000   998.550  2000.000     0.000     0.000     0.000     0.000     0.000     0.000    94.258     5.565    13.971    -2.842     8.512    14.315     0.000     0.000     0.000     0.000     0.000     0.000     0.000     0.000     0.000     0.000     0.000     0.000     0.000     0.718    -0.009     0.000     0.123     2.845     9.201     0.000     0.000     0.000     0.000     0.000     0.000     0.000     0.000     0.000     0.000     0.000     0.000     0.000     0.000     0.000     0.000     0.000     0.000     0.000 .00000E+00 .00000E+00 0.248E+01 0.429E+04 0.000E+00 0.000E+00 0.000E+00 0.000E+00 0.000E+00 0.000E+00     0.000     0.000     0.000
PJNL    7 000020002    2    0    5.90938E+00    11.300     0.000     0.000     0.000    53.353    15.040    58.337    57.689     0.000     0.000     0.000     4.802     0.000     0.000   993.474  2000.000     0.000     0.000     0.000     0.359     0.000     0.359    94.251     5.565    13.971    -2.842     8.514    14.315     0.000     0.000     0.000     0.000     0.000     0.000     0.000     0.000     0.000     0.000     0.000     0.000     0.000     0.718    -0.009     0.000     0.123     2.843     9.195     0.000     0.000     0.000     0.000     0.000     0.000     0.000     0.009     0.000     0.000     0.000     0.000     0.000     0.000     0.000     0.000     0.000     0.000     0.000 .00000E+00 .00000E+00 0.248E+01 0.429E+04 0.000E+00 0.000E+00 0.000E+00 0.000E+00 0.000E+00 0.867E-02     0.000     0.359     0.000
PJNL    8 000020003    2    0    5.27187E-01    11.300     0.000     0.000     0.000    53.353    15.072    58.433    58.085     0.000     0.000     0.000     4.802     0.000     0.000   993.474  2000.000     0.000     0.000     0.000     0.000     0.000     0.000    94.258     5.565    13.971    -2.842     8.512    14.315     0.000     0.000     0.000     0.000     0.000     0.000     0.000     0.000     0.000     0.000     0.000     0.000     0.000     0.718    -0.009     0.000     0.123     2.845     9.201     0.000     0.000     0.000     0.000     0.000     0.000     0.000     0.000     0.000     0.000     0.000     0.000     0.000     0.000     0.000     0.000     0.000     0.000     0.000 .00000E+00 .00000E+00 0.248E+01 0.429E+04 0.000E+00 0.000E+00 0.000E+00 0.000E+00 0.000E+00 0.000E+00     0.000     0.000     0.000
BARR    9 000020004    2    0    5.10641E+01    11.300     0.000     0.000     0.000    53.353    15.034    58.317    57.604     0.000     0.000     0.000     8.296     0.000     0.000   988.725  2000.000     0.000     0.000     0.000     0.436     0.000     0.436    94.250     5.565    13.971    -2.842     8.515    14.315     0.000     0.000     0.000     0.000     0.000     0.000     0.000     0.000     0.000     0.000     0.000     0.000     0.000     0.718    -0.009     0.000     0.123     2.842     9.194     0.000     0.000     0.000     0.000     0.000     0.000     0.000     0.011     0.000     0.000     0.000     0.000     0.000     0.000     0.000     0.000     0.000     0.000     0.000 .00000E+00 .00000E+00 0.248E+01 0.429E+04 0.000E+00 0.000E+00 0.000E+00 0.000E+00 0.000E+00 0.106E-01     0.000     0.436     0.000
BARR   10 000020005    2    0    5.68751E-02    11.300     0.000     0.000     0.000    53.353    15.072    58.433    58.085     0.000     0.000     0.000     8.296     0.000     0.000   988.725  2000.000     0.000     0.000     0.000     0.000     0.000     0.000    94.258     5.565    13.971    -2.842     8.512    14.315     0.000     0.000     0.000     0.000     0.000     0.000     0.000     0.000     0.000     0.000     0.000     0.000     0.000     0.718    -0.009     0.000     0.123     2.845     9.201     0.000     0.000     0.000     0.000     0.000     0.000     0.000     0.000     0.000     0.000     0.000     0.000     0.000     0.000     0.000     0.000     0.000     0.000     0.000 .00000E+00 .00000E+00 0.248E+01 0.429E+04 0.000E+00 0.000E+00 0.000E+00 0.000E+00 0.000E+00 0.000E+00     0.000     0.000     0.000
PJNL   11 000030001    3    0    5.12831E+01    11.300     0.000     0.000     0.000    53.411    16.143    57.186    55.976     0.000     0.000     0.000     4.807     0.000     0.000   993.468  2000.000     0.000     0.000     0.000     0.465     0.000     0.465    94.169     5.565    13.971    -2.842     8.541    14.315     0.000     0.000     0.000     0.000     0.000     0.000     0.000     0.000     0.000     0.000     0.000     0.000     0.000     0.716    -0.009     0.000     0.123     2.805     9.120     0.000     0.000     0.000     0.000     0.000     0.000     0.000     0.012     0.000     0.000     0.000     0.000     0.000     0.000     0.000     0.000     0.000     0.000     0.000 .00000E+00 .00000E+00 0.248E+01 0.429E+04 0.000E+00 0.000E+00 0.000E+00 0.000E+00 0.000E+00 0.117E-01     0.000     0.465     0.000
PJNL   12 000030002    3    0    5.19844E-01    11.300     0.000     0.000     0.000    53.411    16.185    57.310    56.487     0.000     0.000     0.000     4.807     0.000     0.000   993.468  2000.000     0.000     0.000     0.000     0.000     0.000     0.000    94.178     5.565    13.971    -2.842     8.538    14.315     0.000     0.000     0.000     0.000     0.000     0.000     0.000     0.000     0.000     0.000     0.000     0.000     0.000     0.716    -0.009     0.000     0.123     2.807     9.128     0.000     0.000     0.000     0.000     0.000     0.000     0.000     0.000     0.000     0.000     0.000     0.000     0.000     0.000     0.000     0.000     0.000     0.000     0.000 .00000E+00 .00000E+00 0.248E+01 0.429E+04 0.000E+00 0.000E+00 0.000E+00 0.000E+00 0.000E+00 0.000E+00     0.000     0.000     0.000
BARR   13 000030003    3    0    5.42609E+00    11.300     0.000     0.000     0.000    53.411    15.039    58.296    57.537     0.000     0.000     0.000     8.305     0.000     0.000   988.714  2000.000     0.000     0.000     0.000     0.487     0.000     0.487    94.248     5.565    13.971    -2.842     8.515    14.315     0.000     0.000     0.000     0.000     0.000     0.000     0.000     0.000     0.000     0.000     0.000     0.000     0.000     0.718    -0.009     0.000     0.123     2.842     9.193     0.000     0.000     0.000     0.000     0.000     0.000     0.000     0.012     0.000     0.000     0.000     0.000     0.000     0.000     0.000     0.000     0.000     0.000     0.000 .00000E+00 .00000E+00 0.248E+01 0.429E+04 0.000E+00 0.000E+00 0.000E+00 0.000E+00 0.000E+00 0.119E-01     0.000     0.487     0.000
BARR   14 000030004    3    0    5.29688E-02    11.300     0.000     0.000     0.000    53.411    15.081    58.427    58.073     0.000     0.000     0.000     8.305     0.000     0.000   988.714  2000.000     0.000     0.000     0.000     0.000     0.000     0.000    94.258     5.565    13.971    -2.842     8.512    14.315     0.000     0.000     0.000     0.000     0.000     0.000     0.000     0.000     0.000     0.000     0.000     0.000     0.000     0.718    -0.009     0.000     0.123     2.845     9.201     0.000     0.000     0.000     0.000     0.000     0.000     0.000     0.000     0.000     0.000     0.000     0.000     0.000     0.000     0.000     0.000     0.000     0.000     0.000 .00000E+00 .00000E+00 0.248E+01 0.429E+04 0.000E+00 0.000E+00 0.000E+00 0.000E+00 0.000E+00 0.000E+00     0.000     0.000     0.000
WETN   15 000030005    3    0    5.25625E-01    11.300     0.000     0.000     0.000    53.411    15.081    58.427    58.073     0.000     0.000     0.000     1.068     0.000     0.000   998.548  2000.000     0.000     0.000     0.000     0.000     0.000     0.000    94.258     5.565    13.971    -2.842     8.512    14.315     0.000     0.000     0.000     0.000     0.000     0.000     0.000     0.000     0.000     0.000     0.000     0.000     0.000     0.718    -0.009     0.000     0.123     2.845     9.201     0.000     0.000     0.000     0.000     0.000     0.000     0.000     0.000     0.000     0.000     0.000     0.000     0.000     0.000     0.000     0.000     0.000     0.000     0.000 .00000E+00 .00000E+00 0.248E+01 0.429E+04 0.000E+00 0.000E+00 0.000E+00 0.000E+00 0.000E+00 0.000E+00     0.000     0.000     0.000
ES10   16 000030006    3    0    5.33750E-01    11.300     0.000     0.000     0.000    53.411    15.044    58.311    57.599     0.000     0.000     0.000     1.068     0.000     0.000   998.548  2000.000     0.000     0.000     0.000     0.431     0.000     0.431    94.250     5.565    13.971    -2.842     8.515    14.315     0.000     0.000     0.000     0.000     0.000     0.000     0.000     0.000     0.000     0.000     0.000     0.000     0.000     0.718    -0.009     0.000     0.123     2.842     9.193     0.000     0.000     0.000     0.000     0.000     0.000     0.000     0.010     0.000     0.000     0.000     0.000     0.000     0.000     0.000     0.000     0.000     0.000     0.000 .00000E+00 .00000E+00 0.248E+01 0.429E+04 0.000E+00 0.000E+00 0.000E+00 0.000E+00 0.000E+00 0.105E-01     0.000     0.431     0.000
ES9    17 000030007    3    0    5.15625E-01    11.300     0.000     0.000     0.000    53.411    15.043    58.310    57.592     0.000     0.000     0.000     1.068     0.000     0.000   998.548  2000.000     0.000     0.000     0.000     0.437     0.000     0.437    94.249     5.565    13.971    -2.842     8.515    14.315     0.000     0.000     0.000     0.000     0.000     0.000     0.000     0.000     0.000     0.000     0.000     0.000     0.000     0.718    -0.009     0.000     0.123     2.842     9.193     0.000     0.000     0.000     0.000     0.000     0.000     0.000     0.011     0.000     0.000     0.000     0.000     0.000     0.000     0.000     0.000     0.000     0.000     0.000 .00000E+00 .00000E+00 0.248E+01 0.429E+04 0.000E+00 0.000E+00 0.000E+00 0.000E+00 0.000E+00 0.106E-01     0.000     0.437     0.000
ES9    18 000030008    3    0    5.31258E-03    11.300     0.000     0.000     0.000    53.411    15.081    58.427    58.073     0.000     0.000     0.000     1.068     0.000     0.000   998.548  2000.000     0.000     0.000     0.000     0.000     0.000     0.000    94.258     5.565    13.971    -2.842     8.512    14.315     0.000     0.000     0.000     0.000     0.000     0.000     0.000     0.000     0.000     0.000     0.000     0.000     0.000     0.718    -0.009     0.000     0.123     2.845     9.201     0.000     0.000     0.000     0.000     0.000     0.000     0.000     0.000     0.000     0.000     0.000     0.000     0.000     0.000     0.000     0.000     0.000     0.000     0.000 .00000E+00 .00000E+00 0.248E+01 0.429E+04 0.000E+00 0.000E+00 0.000E+00 0.000E+00 0.000E+00 0.000E+00     0.000     0.000     0.000
ES11   19 000030009    3    0    5.18281E-01    11.300     0.000     0.000     0.000    53.411    15.032    58.274    57.445     0.000     0.000     0.000     1.068     0.000     0.000   998.548  2000.000     0.000     0.000     0.000     0.570     0.000     0.570    94.247     5.565    13.971    -2.842     8.516    14.315     0.000     0.000     0.000     0.000     0.000     0.000     0.000     0.000     0.000     0.000     0.000     0.000     0.000     0.717    -0.009     0.000     0.123     2.841     9.191     0.000     0.000     0.000     0.000     0.000     0.000     0.000     0.014     0.000     0.000     0.000     0.000     0.000     0.000     0.000     0.000     0.000     0.000     0.000 .00000E+00 .00000E+00 0.248E+01 0.429E+04 0.000E+00 0.000E+00 0.000E+00 0.000E+00 0.000E+00 0.140E-01     0.000     0.570     0.000
ES12   20 000030010    3    0    5.68751E-02    11.300     0.000     0.000     0.000    53.411    15.023    58.248    57.335     0.000     0.000     0.000     1.068     0.000     0.000   998.548  2000.000     0.000     0.000     0.000     0.669     0.000     0.669    94.245     5.565    13.971    -2.842     8.516    14.315     0.000     0.000     0.000     0.000     0.000     0.000     0.000     0.000     0.000     0.000     0.000     0.000     0.000     0.717    -0.009     0.000     0.123     2.841     9.190     0.000     0.000     0.000     0.000     0.000     0.000     0.000     0.017     0.000     0.000     0.000     0.000     0.000     0.000     0.000     0.000     0.000     0.000     0.000 .00000E+00 .00000E+00 0.248E+01 0.429E+04 0.000E+00 0.000E+00 0.000E+00 0.000E+00 0.000E+00 0.166E-01     0.000     0.669     0.000
ES13   21 000030011    3    0    5.18749E-02    11.300     0.000     0.000     0.000    53.411    15.022    58.243    57.319     0.000     0.000     0.000     1.068     0.000     0.000   998.548  2000.000     0.000     0.000     0.000     0.685     0.000     0.685    94.245     5.565    13.971    -2.842     8.516    14.315     0.000     0.000     0.000     0.000     0.000     0.000     0.000     0.000     0.000     0.000     0.000     0.000     0.000     0.717    -0.009     0.000     0.123     2.841     9.189     0.000     0.000     0.000     0.000     0.000     0.000     0.000     0.017     0.000     0.000     0.000     0.000     0.000     0.000     0.000     0.000     0.000     0.000     0.000 .00000E+00 .00000E+00 0.248E+01 0.429E+04 0.000E+00 0.280E+04 0.176E+06 0.000E+00 0.000E+00 0.170E-01     0.000     0.685     0.000
PJNL    1 000010001    1    0    6.13850E+01     8.000     0.000     0.000     0.000    59.726    13.167    54.525    52.055     0.000     0.000     0.000     5.375     0.000     0.000   988.120  2000.000     0.000     0.000     0.000     0.438     0.000     0.438    93.975     4.412    14.090    -5.267     8.449    17.466     0.000     0.000     0.000     0.000     0.000     0.000     0.000     0.000     0.000     0.000     0.000     0.000     0.000     0.680    -0.019     0.000     0.117     1.397     3.338     0.000     0.000     0.000     0.000     0.000     0.000     0.000     0.009     0.000     0.000     0.000     0.000     0.000     0.000     0.000     0.000     0.000     0.000     0.000 .00000E+00 .00000E+00 0.250E+01 0.429E+04 0.000E+00 0.000E+00 0.000E+00 0.000E+00 0.000E+00 0.879E-02     0.000     0.438     0.000
PJNL    2 000010002    1    0    6.33594E-01     8.000     0.000     0.000     0.000    59.726    13.413    55.111    52.713     0.000     0.000     0.000     5.375     0.000     0.000   988.120  2000.000     0.000     0.000     0.000     0.000     0.000     0.000    94.019     4.412    14.090    -5.267     8.433    17.466     0.000     0.000     0.000     0.000     0.000     0.000     0.000     0.000     0.000     0.000     0.000     0.000     0.000     0.682    -0.019     0.000     0.117     1.404     3.353     0.000     0.000     0.000     0.000     0.000     0.000     0.000     0.000     0.000     0.000     0.000     0.000     0.000     0.000     0.000     0.000     0.000     0.000     0.000 .00000E+00 .00000E+00 0.250E+01 0.429E+04 0.000E+00 0.000E+00 0.000E+00 0.000E+00 0.000E+00 0.000E+00     0.000     0.000     0.000
WETN    3 000010003    1    0    6.71719E-01     8.000     0.000     0.000     0.000    59.726    13.413    55.111    52.713     0.000     0.000     0.000     1.195     0.000     0.000   997.360  2000.000     0.000     0.000     0.000     0.000     0.000     0.000    94.019     4.412    14.090    -5.267     8.433    17.466     0.000     0.000     0.000     0.000     0.000     0.000     0.000     0.000     0.000     0.000     0.000     0.000     0.000     0.682    -0.019     0.000     0.117     1.404     3.353     0.000     0.000     0.000     0.000     0.000     0.000     0.000     0.000     0.000     0.000     0.000     0.000     0.000     0.000     0.000     0.000     0.000     0.000     0.000 .00000E+00 .00000E+00 0.250E+01 0.429E+04 0.000E+00 0.000E+00 0.000E+00 0.000E+00 0.000E+00 0.000E+00     0.000     0.000     0.000
BARR    4 000010004    1    0    6.22984E+00     8.000     0.000     0.000     0.000    59.726    13.142    54.464    51.986     0.000     0.000     0.000     9.287     0.000     0.000   979.474  2000.000     0.000     0.000     0.000     0.484     0.000     0.484    93.970     4.412    14.090    -5.267     8.450    17.466     0.000     0.000     0.000     0.000     0.000     0.000     0.000     0.000     0.000     0.000     0.000     0.000     0.000     0.679    -0.019     0.000     0.116     1.397     3.336     0.000     0.000     0.000     0.000     0.000     0.000     0.000     0.010     0.000     0.000     0.000     0.000     0.000     0.000     0.000     0.000     0.000     0.000     0.000 .00000E+00 .00000E+00 0.250E+01 0.429E+04 0.000E+00 0.000E+00 0.000E+00 0.000E+00 0.000E+00 0.983E-02     0.000     0.484     0.000
BARR    5 000010005    1    0    6.24999E-02     8.000     0.000     0.000     0.000    59.726    13.413    55.111    52.713     0.000     0.000     0.000     9.287     0.000     0.000   979.474  2000.000     0.000     0.000     0.000     0.000     0.000     0.000    94.019     4.412    14.090    -5.267     8.433    17.466     0.000     0.000     0.000     0.000     0.000     0.000     0.000     0.000     0.000     0.000     0.000     0.000     0.000     0.682    -0.019     0.000     0.117     1.404     3.353     0.000     0.000     0.000     0.000     0.000     0.000     0.000     0.000     0.000     0.000     0.000     0.000     0.000     0.000     0.000     0.000     0.000     0.000     0.000 .00000E+00 .00000E+00 0.250E+01 0.429E+04 0.000E+00 0.000E+00 0.000E+00 0.000E+00 0.000E+00 0.000E+00     0.000     0.000     0.000
WETN    6 000020001    2    0    6.22531E+00     8.000     0.000     0.000     0.000    59.979    13.426    55.063    52.658     0.000     0.000     0.000     1.200     0.000     0.000   997.350  2000.000     0.000     0.000     0.000     0.000     0.000     0.000    94.016     4.412    14.090    -5.267     8.434    17.466     0.000     0.000     0.000     0.000     0.000     0.000     0.000     0.000     0.000     0.000     0.000     0.000     0.000     0.682    -0.019     0.000     0.117     1.404     3.352     0.000     0.000     0.000     0.000     0.000     0.000     0.000     0.000     0.000     0.000     0.000     0.000     0.000     0.000     0.000     0.000     0.000     0.000     0.000 .00000E+00 .00000E+00 0.250E+01 0.429E+04 0.000E+00 0.000E+00 0.000E+00 0.000E+00 0.000E+00 0.000E+00     0.000     0.000     0.000
PJNL    7 000020002    2    0    6.90938E+00     8.000     0.000     0.000     0.000    59.979    13.243    54.629    52.171     0.000     0.000     0.000     5.398     0.000     0.000   988.076  2000.000     0.000     0.000     0.000     0.326     0.000     0.326    93.983     4.412    14.090    -5.267     8.446    17.466     0.000     0.000     0.000     0.000     0.000     0.000     0.000     0.000     0.000     0.000     0.000     0.000     0.000     0.680    -0.019     0.000     0.117     1.399     3.341     0.000     0.000     0.000     0.000     0.000     0.000     0.000     0.006     0.000     0.000     0.000     0.000     0.000     0.000     0.000     0.000     0.000     0.000     0.000 .00000E+00 .00000E+00 0.250E+01 0.429E+04 0.000E+00 0.000E+00 0.000E+00 0.000E+00 0.000E+00 0.638E-02     0.000     0.326     0.000
PJNL    8 000020003    2    0    6.27187E-01     8.000     0.000     0.000     0.000    59.979    13.426    55.063    52.658     0.000     0.000     0.000     5.398     0.000     0.000   988.076  2000.000     0.000     0.000     0.000     0.000     0.000     0.000    94.016     4.412    14.090    -5.267     8.434    17.466     0.000     0.000     0.000     0.000     0.000     0.000     0.000     0.000     0.000     0.000     0.000     0.000     0.000     0.682    -0.019     0.000     0.117     1.404     3.352     0.000     0.000     0.000     0.000     0.000     0.000     0.000     0.000     0.000     0.000     0.000     0.000     0.000     0.000     0.000     0.000     0.000     0.000     0.000 .00000E+00 .00000E+00 0.250E+01 0.429E+04 0.000E+00 0.000E+00 0.000E+00 0.000E+00 0.000E+00 0.000E+00     0.000     0.000     0.000
BARR    9 000020004    2    0    6.10641E+01     8.000     0.000     0.000     0.000    59.979    13.204    54.535    52.065     0.000     0.000     0.000     9.327     0.000     0.000   979.398  2000.000     0.000     0.000     0.000     0.396     0.000     0.396    93.975     4.412    14.090    -5.267     8.448    17.466     0.000     0.000     0.000     0.000     0.000     0.000     0.000     0.000     0.000     0.000     0.000     0.000     0.000     0.680    -0.019     0.000     0.117     1.398     3.338     0.000     0.000     0.000     0.000     0.000     0.000     0.000     0.008     0.000     0.000     0.000     0.000     0.000     0.000     0.000     0.000     0.000     0.000     0.000 .00000E+00 .00000E+00 0.250E+01 0.429E+04 0.000E+00 0.000E+00 0.000E+00 0.000E+00 0.000E+00 0.790E-02     0.000     0.396     0.000
BARR   10 000020005    2    0    6.68751E-02     8.000     0.000     0.000     0.000    59.979    13.426    55.063    52.658     0.000     0.000     0.000     9.327     0.000     0.000   979.398  2000.000     0.000     0.000     0.000     0.000     0.000     0.000    94.016     4.412    14.090    -5.267     8.434    17.466     0.000     0.000     0.000     0.000     0.000     0.000     0.000     0.000     0.000     0.000     0.000     0.000     0.000     0.682    -0.019     0.000     0.117     1.404     3.352     0.000     0.000     0.000     0.000     0.000     0.000     0.000     0.000     0.000     0.000     0.000     0.000     0.000     0.000     0.000     0.000     0.000     0.000     0.000 .00000E+00 .00000E+00 0.250E+01 0.429E+04 0.000E+00 0.000E+00 0.000E+00 0.000E+00 0.000E+00 0.000E+00     0.000     0.000     0.000
PJNL   11 000030001    3    0    6.12831E+01     8.000     0.000     0.000     0.000    60.052    14.240    52.383    49.379     0.000     0.000     0.000     5.405     0.000     0.000   988.063  2000.000     0.000     0.000     0.000     0.422     0.000     0.422    93.806     4.412    14.090    -5.267     8.509    17.466     0.000     0.000     0.000     0.000     0.000     0.000     0.000     0.000     0.000     0.000     0.000     0.000     0.000     0.676    -0.019     0.000     0.116     1.386     3.318     0.000     0.000     0.000     0.000     0.000     0.000     0.000     0.009     0.000     0.000     0.000     0.000     0.000     0.000     0.000     0.000     0.000     0.000     0.000 .00000E+00 .00000E+00 0.250E+01 0.429E+04 0.000E+00 0.000E+00 0.000E+00 0.000E+00 0.000E+00 0.884E-02     0.000     0.422     0.000
PJNL   12 000030002    3    0    6.19844E-01     8.000     0.000     0.000     0.000    60.052    14.480    52.942    50.007     0.000     0.000     0.000     5.405     0.000     0.000   988.063  2000.000     0.000     0.000     0.000     0.000     0.000     0.000    93.851     4.412    14.090    -5.267     8.493    17.466     0.000     0.000     0.000     0.000     0.000     0.000     0.000     0.000     0.000     0.000     0.000     0.000     0.000     0.679    -0.019     0.000     0.116     1.392     3.331     0.000     0.000     0.000     0.000     0.000     0.000     0.000     0.000     0.000     0.000     0.000     0.000     0.000     0.000     0.000     0.000     0.000     0.000     0.000 .00000E+00 .00000E+00 0.250E+01 0.429E+04 0.000E+00 0.000E+00 0.000E+00 0.000E+00 0.000E+00 0.000E+00     0.000     0.000     0.000
BARR   13 000030003    3    0    6.42609E+00     8.000     0.000     0.000     0.000    60.052    13.183    54.460    51.980     0.000     0.000     0.000     9.338     0.000     0.000   979.376  2000.000     0.000     0.000     0.000     0.442     0.000     0.442    93.970     4.412    14.090    -5.267     8.451    17.466     0.000     0.000     0.000     0.000     0.000     0.000     0.000     0.000     0.000     0.000     0.000     0.000     0.000     0.679    -0.019     0.000     0.116     1.397     3.337     0.000     0.000     0.000     0.000     0.000     0.000     0.000     0.009     0.000     0.000     0.000     0.000     0.000     0.000     0.000     0.000     0.000     0.000     0.000 .00000E+00 .00000E+00 0.250E+01 0.429E+04 0.000E+00 0.000E+00 0.000E+00 0.000E+00 0.000E+00 0.894E-02     0.000     0.442     0.000
BARR   14 000030004    3    0    6.29688E-02     8.000     0.000     0.000     0.000    60.052    13.430    55.049    52.643     0.000     0.000     0.000     9.338     0.000     0.000   979.376  2000.000     0.000     0.000     0.000     0.000     0.000     0.000    94.015     4.412    14.090    -5.267     8.434    17.466     0.000     0.000     0.000     0.000     0.000     0.000     0.000     0.000     0.000     0.000     0.000     0.000     0.000     0.682    -0.019     0.000     0.117     1.404     3.352     0.000     0.000     0.000     0.000     0.000     0.000     0.000     0.000     0.000     0.000     0.000     0.000     0.000     0.000     0.000     0.000     0.000     0.000     0.000 .00000E+00 .00000E+00 0.250E+01 0.429E+04 0.000E+00 0.000E+00 0.000E+00 0.000E+00 0.000E+00 0.000E+00     0.000     0.000     0.000
WETN   15 000030005    3    0    6.25625E-01     8.000     0.000     0.000     0.000    60.052    13.430    55.049    52.643     0.000     0.000     0.000     1.201     0.000     0.000   997.347  2000.000     0.000     0.000     0.000     0.000     0.000     0.000    94.015     4.412    14.090    -5.267     8.434    17.466     0.000     0.000     0.000     0.000     0.000     0.000     0.000     0.000     0.000     0.000     0.000     0.000     0.000     0.682    -0.019     0.000     0.117     1.404     3.352     0.000     0.000     0.000     0.000     0.000     0.000     0.000     0.000     0.000     0.000     0.000     0.000     0.000     0.000     0.000     0.000     0.000     0.000     0.000 .00000E+00 .00000E+00 0.250E+01 0.429E+04 0.000E+00 0.000E+00 0.000E+00 0.000E+00 0.000E+00 0.000E+00     0.000     0.000     0.000
ES10   16 000030006    3    0    6.33750E-01     8.000     0.000     0.000     0.000    60.052    13.211    54.528    52.057     0.000     0.000     0.000     1.201     0.000     0.000   997.347  2000.000     0.000     0.000     0.000     0.391     0.000     0.391    93.975     4.412    14.090    -5.267     8.449    17.466     0.000     0.000     0.000     0.000     0.000     0.000     0.000     0.000     0.000     0.000     0.000     0.000     0.000     0.680    -0.019     0.000     0.117     1.398     3.338     0.000     0.000     0.000     0.000     0.000     0.000     0.000     0.008     0.000     0.000     0.000     0.000     0.000     0.000     0.000     0.000     0.000     0.000     0.000 .00000E+00 .00000E+00 0.250E+01 0.429E+04 0.000E+00 0.000E+00 0.000E+00 0.000E+00 0.000E+00 0.780E-02     0.000     0.391     0.000
ES9    17 000030007    3    0    6.15625E-01     8.000     0.000     0.000     0.000    60.052    13.208    54.521    52.049     0.000     0.000     0.000     1.201     0.000     0.000   997.347  2000.000     0.000     0.000     0.000     0.396     0.000     0.396    93.974     4.412    14.090    -5.267     8.449    17.466     0.000     0.000     0.000     0.000     0.000     0.000     0.000     0.000     0.000     0.000     0.000     0.000     0.000     0.680    -0.019     0.000     0.117     1.398     3.338     0.000     0.000     0.000     0.000     0.000     0.000     0.000     0.008     0.000     0.000     0.000     0.000     0.000     0.000     0.000     0.000     0.000     0.000     0.000 .00000E+00 .00000E+00 0.250E+01 0.429E+04 0.000E+00 0.000E+00 0.000E+00 0.000E+00 0.000E+00 0.793E-02     0.000     0.396     0.000
ES9    18 000030008    3    0    6.31258E-03     8.000     0.000     0.000     0.000    60.052    13.430    55.049    52.643     0.000     0.000     0.000     1.201     0.000     0.000   997.347  2000.000     0.000     0.000     0.000     0.000     0.000     0.000    94.015     4.412    14.090    -5.267     8.434    17.466     0.000     0.000     0.000     0.000     0.000     0.000     0.000     0.000     0.000     0.000     0.000     0.000     0.000     0.682    -0.019     0.000     0.117     1.404     3.352     0.000     0.000     0.000     0.000     0.000     0.000     0.000     0.000     0.000     0.000     0.000     0.000     0.000     0.000     0.000     0.000     0.000     0.000     0.000 .00000E+00 .00000E+00 0.250E+01 0.429E+04 0.000E+00 0.000E+00 0.000E+00 0.000E+00 0.000E+00 0.000E+00     0.000     0.000     0.000
ES11   19 000030009    3    0    6.18281E-01     8.000     0.000     0.000     0.000    60.052    13.141    54.359    51.866     0.000     0.000     0.000     1.201     0.000     0.000   997.347  2000.000     0.000     0.000     0.000     0.517     0.000     0.517    93.962     4.412    14.090    -5.267     8.453    17.466     0.000     0.000     0.000     0.000     0.000     0.000     0.000     0.000     0.000     0.000     0.000     0.000     0.000     0.679    -0.019     0.000     0.116     1.396     3.334     0.000     0.000     0.000     0.000     0.000     0.000     0.000     0.011     0.000     0.000     0.000     0.000     0.000     0.000     0.000     0.000     0.000     0.000     0.000 .00000E+00 .00000E+00 0.250E+01 0.429E+04 0.000E+00 0.000E+00 0.000E+00 0.000E+00 0.000E+00 0.107E-01     0.000     0.517     0.000
ES12   20 000030010    3    0    6.68751E-02     8.000     0.000     0.000     0.000    60.052    13.092    54.237    51.729     0.000     0.000     0.000     1.201     0.000     0.000   997.347  2000.000     0.000     0.000     0.000     0.608     0.000     0.608    93.953     4.412    14.090    -5.267     8.457    17.466     0.000     0.000     0.000     0.000     0.000     0.000     0.000     0.000     0.000     0.000     0.000     0.000     0.000     0.678    -0.019     0.000     0.116     1.395     3.331     0.000     0.000     0.000     0.000     0.000     0.000     0.000     0.013     0.000     0.000     0.000     0.000     0.000     0.000     0.000     0.000     0.000     0.000     0.000 .00000E+00 .00000E+00 0.250E+01 0.429E+04 0.000E+00 0.000E+00 0.000E+00 0.000E+00 0.000E+00 0.128E-01     0.000     0.608     0.000
ES13   21 000030011    3    0    6.18749E-02     8.000     0.000     0.000     0.000    60.052    13.085    54.219    51.708     0.000     0.000     0.000     1.201     0.000     0.000   997.347  2000.000     0.000     0.000     0.000     0.622     0.000     0.622    93.951     4.412    14.090    -5.267     8.457    17.466     0.000     0.000     0.000     0.000     0.000     0.000     0.000     0.000     0.000     0.000     0.000     0.000     0.000     0.678    -0.019     0.000     0.116     1.394     3.331     0.000     0.000     0.000     0.000     0.000     0.000     0.000     0.013     0.000     0.000     0.000     0.000     0.000     0.000     0.000     0.000     0.000     0.000     0.000 .00000E+00 .00000E+00 0.250E+01 0.429E+04 0.000E+00 0.280E+04 0.176E+06 0.000E+00 0.000E+00 0.132E-01     0.000     0.622     0.000
PJNL    1 000010001    1    0    7.13850E+01     5.200     0.000     0.000     0.000    60.300    10.139    49.232    47.116     0.000     0.000     0.000     5.427     0.000     0.000   982.693  2000.000     0.000     0.000     0.000     0.000     0.000     0.000    93.540     4.545    14.200    -5.110     8.466    15.670     0.000     0.000     0.000     0.000     0.000     0.000     0.000     0.000     0.000     0.000     0.000     0.000     0.000     0.675    -0.029     0.000     0.116     0.783     1.993     0.000     0.000     0.000     0.000     0.000     0.000     0.000     0.000     0.000     0.000     0.000     0.000     0.000     0.000     0.000     0.000     0.000     0.000     0.000 .00000E+00 .00000E+00 0.250E+01 0.429E+04 0.000E+00 0.000E+00 0.000E+00 0.000E+00 0.000E+00 0.617E-05     0.000     0.000     0.000
PJNL    2 000010002    1    0    7.33594E-01     5.200     0.000     0.000     0.000    60.300    10.309    49.788    47.603     0.000     0.000     0.000     5.427     0.000     0.000   982.693  2000.000     0.000     0.000     0.000     0.000     0.000     0.000    93.589     4.545    14.200    -5.110     8.446    15.670     0.000     0.000     0.000     0.000     0.000     0.000     0.000     0.000     0.000     0.000     0.000     0.000     0.000     0.678    -0.029     0.000     0.116     0.779     1.983     0.000     0.000     0.000     0.000     0.000     0.000     0.000     0.000     0.000     0.000     0.000     0.000     0.000     0.000     0.000     0.000     0.000     0.000     0.000 .00000E+00 .00000E+00 0.250E+01 0.429E+04 0.000E+00 0.000E+00 0.000E+00 0.000E+00 0.000E+00 0.000E+00     0.000     0.000     0.000
WETN    3 000010003    1    0    7.71719E-01     5.200     0.000     0.000     0.000    60.300    10.309    49.788    47.603     0.000     0.000     0.000     1.206     0.000     0.000   996.154  2000.000     0.000     0.000     0.000     0.000     0.000     0.000    93.589     4.545    14.200    -5.110     8.446    15.670     0.000     0.000     0.000     0.000     0.000     0.000     0.000     0.000     0.000     0.000     0.000     0.000     0.000     0.678    -0.029     0.000     0.116     0.779     1.983     0.000     0.000     0.000     0.000     0.000     0.000     0.000     0.000     0.000     0.000     0.000     0.000     0.000     0.000     0.000     0.000     0.000     0.000     0.000 .00000E+00 .00000E+00 0.250E+01 0.429E+04 0.000E+00 0.000E+00 0.000E+00 0.000E+00 0.000E+00 0.000E+00     0.000     0.000     0.000
BARR    4 000010004    1    0    7.22984E+00     5.200     0.000     0.000     0.000    60.300    10.121    49.174    47.064     0.000     0.000     0.000     9.377     0.000     0.000   970.098  2000.000     0.000     0.000     0.000     0.000     0.000     0.000    93.535     4.545    14.200    -5.110     8.469    15.670     0.000     0.000     0.000     0.000     0.000     0.000     0.000     0.000     0.000     0.000     0.000     0.000     0.000     0.675    -0.029     0.000     0.116     0.783     1.994     0.000     0.000     0.000     0.000     0.000     0.000     0.000     0.000     0.000     0.000     0.000     0.000     0.000     0.000     0.000     0.000     0.000     0.000     0.000 .00000E+00 .00000E+00 0.250E+01 0.429E+04 0.000E+00 0.000E+00 0.000E+00 0.000E+00 0.000E+00 0.689E-05     0.000     0.000     0.000
BARR    5 000010005    1    0    7.24999E-02     5.200     0.000     0.000     0.000    60.300    10.309    49.788    47.603     0.000     0.000     0.000     9.377     0.000     0.000   970.098  2000.000     0.000     0.000     0.000     0.000     0.000     0.000    93.589     4.545    14.200    -5.110     8.446    15.670     0.000     0.000     0.000     0.000     0.000     0.000     0.000     0.000     0.000     0.000     0.000     0.000     0.000     0.678    -0.029     0.000     0.116     0.779     1.983     0.000     0.000     0.000     0.000     0.000     0.000     0.000     0.000     0.000     0.000     0.000     0.000     0.000     0.000     0.000     0.000     0.000     0.000     0.000 .00000E+00 .00000E+00 0.250E+01 0.429E+04 0.000E+00 0.000E+00 0.000E+00 0.000E+00 0.000E+00 0.000E+00     0.000     0.000     0.000
WETN    6 000020001    2    0    7.22531E+00     5.200     0.000     0.000     0.000    60.518    10.315    49.732    47.544     0.000     0.000     0.000     1.210     0.000     0.000   996.140  2000.000     0.000     0.000     0.000     0.000     0.000     0.000    93.584     4.545    14.200    -5.110     8.448    15.670     0.000     0.000     0.000     0.000     0.000     0.000     0.000     0.000     0.000     0.000     0.000     0.000     0.000     0.678    -0.029     0.000     0.116     0.780     1.984     0.000     0.000     0.000     0.000     0.000     0.000     0.000     0.000     0.000     0.000     0.000     0.000     0.000     0.000     0.000     0.000     0.000     0.000     0.000 .00000E+00 .00000E+00 0.250E+01 0.429E+04 0.000E+00 0.000E+00 0.000E+00 0.000E+00 0.000E+00 0.000E+00     0.000     0.000     0.000
PJNL    7 000020002    2    0    7.90938E+00     5.200     0.000     0.000     0.000    60.518    10.188    49.320    47.183     0.000     0.000     0.000     5.447     0.000     0.000   982.629  2000.000     0.000     0.000     0.000     0.000     0.000     0.000    93.548     4.545    14.200    -5.110     8.463    15.670     0.000     0.000     0.000     0.000     0.000     0.000     0.000     0.000     0.000     0.000     0.000     0.000     0.000     0.676    -0.029     0.000     0.116     0.782     1.991     0.000     0.000     0.000     0.000     0.000     0.000     0.000     0.000     0.000     0.000     0.000     0.000     0.000     0.000     0.000     0.000     0.000     0.000     0.000 .00000E+00 .00000E+00 0.250E+01 0.429E+04 0.000E+00 0.000E+00 0.000E+00 0.000E+00 0.000E+00 0.363E-05     0.000     0.000     0.000
PJNL    8 000020003    2    0    7.27187E-01     5.200     0.000     0.000     0.000    60.518    10.315    49.732    47.544     0.000     0.000     0.000     5.447     0.000     0.000   982.629  2000.000     0.000     0.000     0.000     0.000     0.000     0.000    93.584     4.545    14.200    -5.110     8.448    15.670     0.000     0.000     0.000     0.000     0.000     0.000     0.000     0.000     0.000     0.000     0.000     0.000     0.000     0.678    -0.029     0.000     0.116     0.780     1.984     0.000     0.000     0.000     0.000     0.000     0.000     0.000     0.000     0.000     0.000     0.000     0.000     0.000     0.000     0.000     0.000     0.000     0.000     0.000 .00000E+00 .00000E+00 0.250E+01 0.429E+04 0.000E+00 0.000E+00 0.000E+00 0.000E+00 0.000E+00 0.000E+00     0.000     0.000     0.000
BARR    9 000020004    2    0    7.10641E+01     5.200     0.000     0.000     0.000    60.518    10.161    49.231    47.104     0.000     0.000     0.000     9.411     0.000     0.000   969.987  2000.000     0.000     0.000     0.000     0.000     0.000     0.000    93.540     4.545    14.200    -5.110     8.466    15.670     0.000     0.000     0.000     0.000     0.000     0.000     0.000     0.000     0.000     0.000     0.000     0.000     0.000     0.675    -0.029     0.000     0.116     0.783     1.992     0.000     0.000     0.000     0.000     0.000     0.000     0.000     0.000     0.000     0.000     0.000     0.000     0.000     0.000     0.000     0.000     0.000     0.000     0.000 .00000E+00 .00000E+00 0.250E+01 0.429E+04 0.000E+00 0.000E+00 0.000E+00 0.000E+00 0.000E+00 0.555E-05     0.000     0.000     0.000
BARR   10 000020005    2    0    7.68751E-02     5.200     0.000     0.000     0.000    60.518    10.315    49.732    47.544     0.000     0.000     0.000     9.411     0.000     0.000   969.987  2000.000     0.000     0.000     0.000     0.000     0.000     0.000    93.584     4.545    14.200    -5.110     8.448    15.670     0.000     0.000     0.000     0.000     0.000     0.000     0.000     0.000     0.000     0.000     0.000     0.000     0.000     0.678    -0.029     0.000     0.116     0.780     1.984     0.000     0.000     0.000     0.000     0.000     0.000     0.000     0.000     0.000     0.000     0.000     0.000     0.000     0.000     0.000     0.000     0.000     0.000     0.000 .00000E+00 .00000E+00 0.250E+01 0.429E+04 0.000E+00 0.000E+00 0.000E+00 0.000E+00 0.000E+00 0.000E+00     0.000     0.000     0.000
PJNL   11 000030001    3    0    7.12831E+01     5.200     0.000     0.000     0.000    60.582    11.073    46.036    43.506     0.000     0.000     0.000     5.452     0.000     0.000   982.611  2000.000     0.000     0.000     0.000     0.000     0.000     0.000    93.244     4.545    14.200    -5.110     8.578    15.670     0.000     0.000     0.000     0.000     0.000     0.000     0.000     0.000     0.000     0.000     0.000     0.000     0.000     0.669    -0.029     0.000     0.115     0.785     1.996     0.000     0.000     0.000     0.000     0.000     0.000     0.000     0.000     0.000     0.000     0.000     0.000     0.000     0.000     0.000     0.000     0.000     0.000     0.000 .00000E+00 .00000E+00 0.250E+01 0.429E+04 0.000E+00 0.000E+00 0.000E+00 0.000E+00 0.000E+00 0.622E-05     0.000     0.000     0.000
PJNL   12 000030002    3    0    7.19844E-01     5.200     0.000     0.000     0.000    60.582    11.238    46.565    43.969     0.000     0.000     0.000     5.452     0.000     0.000   982.611  2000.000     0.000     0.000     0.000     0.000     0.000     0.000    93.295     4.545    14.200    -5.110     8.558    15.670     0.000     0.000     0.000     0.000     0.000     0.000     0.000     0.000     0.000     0.000     0.000     0.000     0.000     0.673    -0.029     0.000     0.115     0.782     1.988     0.000     0.000     0.000     0.000     0.000     0.000     0.000     0.000     0.000     0.000     0.000     0.000     0.000     0.000     0.000     0.000     0.000     0.000     0.000 .00000E+00 .00000E+00 0.250E+01 0.429E+04 0.000E+00 0.000E+00 0.000E+00 0.000E+00 0.000E+00 0.000E+00     0.000     0.000     0.000
BARR   13 000030003    3    0    7.42609E+00     5.200     0.000     0.000     0.000    60.582    10.145    49.156    47.035     0.000     0.000     0.000     9.420     0.000     0.000   969.955  2000.000     0.000     0.000     0.000     0.000     0.000     0.000    93.533     4.545    14.200    -5.110     8.469    15.670     0.000     0.000     0.000     0.000     0.000     0.000     0.000     0.000     0.000     0.000     0.000     0.000     0.000     0.674    -0.029     0.000     0.116     0.783     1.994     0.000     0.000     0.000     0.000     0.000     0.000     0.000     0.000     0.000     0.000     0.000     0.000     0.000     0.000     0.000     0.000     0.000     0.000     0.000 .00000E+00 .00000E+00 0.250E+01 0.429E+04 0.000E+00 0.000E+00 0.000E+00 0.000E+00 0.000E+00 0.629E-05     0.000     0.000     0.000
BARR   14 000030004    3    0    7.29688E-02     5.200     0.000     0.000     0.000    60.582    10.316    49.715    47.526     0.000     0.000     0.000     9.420     0.000     0.000   969.955  2000.000     0.000     0.000     0.000     0.000     0.000     0.000    93.582     4.545    14.200    -5.110     8.449    15.670     0.000     0.000     0.000     0.000     0.000     0.000     0.000     0.000     0.000     0.000     0.000     0.000     0.000     0.678    -0.029     0.000     0.116     0.780     1.984     0.000     0.000     0.000     0.000     0.000     0.000     0.000     0.000     0.000     0.000     0.000     0.000     0.000     0.000     0.000     0.000     0.000     0.000     0.000 .00000E+00 .00000E+00 0.250E+01 0.429E+04 0.000E+00 0.000E+00 0.000E+00 0.000E+00 0.000E+00 0.000E+00     0.000     0.000     0.000
WETN   15 000030005    3    0    7.25625E-01     5.200     0.000     0.000     0.000    60.582    10.316    49.715    47.526     0.000     0.000     0.000     1.212     0.000     0.000   996.136  2000.000     0.000     0.000     0.000     0.000     0.000     0.000    93.582     4.545    14.200    -5.110     8.449    15.670     0.000     0.000     0.000     0.000     0.000     0.000     0.000     0.000     0.000     0.000     0.000     0.000     0.000     0.678    -0.029     0.000     0.116     0.780     1.984     0.000     0.000     0.000     0.000     0.000     0.000     0.000     0.000     0.000     0.000     0.000     0.000     0.000     0.000     0.000     0.000     0.000     0.000     0.000 .00000E+00 .00000E+00 0.250E+01 0.429E+04 0.000E+00 0.000E+00 0.000E+00 0.000E+00 0.000E+00 0.000E+00     0.000     0.000     0.000
ES10   16 000030006    3    0    7.33750E-01     5.200     0.000     0.000     0.000    60.582    10.164    49.221    47.093     0.000     0.000     0.000     1.212     0.000     0.000   996.136  2000.000     0.000     0.000     0.000     0.000     0.000     0.000    93.539     4.545    14.200    -5.110     8.467    15.670     0.000     0.000     0.000     0.000     0.000     0.000     0.000     0.000     0.000     0.000     0.000     0.000     0.000     0.675    -0.029     0.000     0.116     0.783     1.992     0.000     0.000     0.000     0.000     0.000     0.000     0.000     0.000     0.000     0.000     0.000     0.000     0.000     0.000     0.000     0.000     0.000     0.000     0.000 .00000E+00 .00000E+00 0.250E+01 0.429E+04 0.000E+00 0.000E+00 0.000E+00 0.000E+00 0.000E+00 0.549E-05     0.000     0.000     0.000
ES9    17 000030007    3    0    7.15625E-01     5.200     0.000     0.000     0.000    60.582    10.162    49.214    47.087     0.000     0.000     0.000     1.212     0.000     0.000   996.136  2000.000     0.000     0.000     0.000     0.000     0.000     0.000    93.538     4.545    14.200    -5.110     8.467    15.670     0.000     0.000     0.000     0.000     0.000     0.000     0.000     0.000     0.000     0.000     0.000     0.000     0.000     0.675    -0.029     0.000     0.116     0.783     1.993     0.000     0.000     0.000     0.000     0.000     0.000     0.000     0.000     0.000     0.000     0.000     0.000     0.000     0.000     0.000     0.000     0.000     0.000     0.000 .00000E+00 .00000E+00 0.250E+01 0.429E+04 0.000E+00 0.000E+00 0.000E+00 0.000E+00 0.000E+00 0.557E-05     0.000     0.000     0.000
ES9    18 000030008    3    0    7.31258E-03     5.200     0.000     0.000     0.000    60.582    10.316    49.715    47.526     0.000     0.000     0.000     1.212     0.000     0.000   996.136  2000.000     0.000     0.000     0.000     0.000     0.000     0.000    93.582     4.545    14.200    -5.110     8.449    15.670     0.000     0.000     0.000     0.000     0.000     0.000     0.000     0.000     0.000     0.000     0.000     0.000     0.000     0.678    -0.029     0.000     0.116     0.780     1.984     0.000     0.000     0.000     0.000     0.000     0.000     0.000     0.000     0.000     0.000     0.000     0.000     0.000     0.000     0.000     0.000     0.000     0.000     0.000 .00000E+00 .00000E+00 0.250E+01 0.429E+04 0.000E+00 0.000E+00 0.000E+00 0.000E+00 0.000E+00 0.000E+00     0.000     0.000     0.000
ES11   19 000030009    3    0    7.18281E-01     5.200     0.000     0.000     0.000    60.582    10.116    49.059    46.950     0.000     0.000     0.000     1.212     0.000     0.000   996.136  2000.000     0.000     0.000     0.000     0.000     0.000     0.001    93.525     4.545    14.200    -5.110     8.473    15.670     0.000     0.000     0.000     0.000     0.000     0.000     0.000     0.000     0.000     0.000     0.000     0.000     0.000     0.674    -0.029     0.000     0.116     0.783     1.995     0.000     0.000     0.000     0.000     0.000     0.000     0.000     0.000     0.000     0.000     0.000     0.000     0.000     0.000     0.000     0.000     0.000     0.000     0.000 .00000E+00 .00000E+00 0.250E+01 0.429E+04 0.000E+00 0.000E+00 0.000E+00 0.000E+00 0.000E+00 0.750E-05     0.000     0.000     0.000
ES12   20 000030010    3    0    7.68751E-02     5.200     0.000     0.000     0.000    60.582    10.081    48.942    46.848     0.000     0.000     0.000     1.212     0.000     0.000   996.136  2000.000     0.000     0.000     0.000     0.001     0.000     0.001    93.514     4.545    14.200    -5.110     8.477    15.670     0.000     0.000     0.000     0.000     0.000     0.000     0.000     0.000     0.000     0.000     0.000     0.000     0.000     0.673    -0.029     0.000     0.115     0.784     1.997     0.000     0.000     0.000     0.000     0.000     0.000     0.000     0.000     0.000     0.000     0.000     0.000     0.000     0.000     0.000     0.000     0.000     0.000     0.000 .00000E+00 .00000E+00 0.250E+01 0.429E+04 0.000E+00 0.000E+00 0.000E+00 0.000E+00 0.000E+00 0.101E-04     0.000     0.001     0.000
ES13   21 000030011    3    0    7.18749E-02     5.200     0.000     0.000     0.000    60.582    10.076    48.924    46.832     0.000     0.000     0.000     1.212     0.000     0.000   996.136  2000.000     0.000     0.000     0.000     0.001     0.000     0.001    93.513     4.545    14.200    -5.110     8.478    15.670     0.000     0.000     0.000     0.000     0.000     0.000     0.000     0.000     0.000     0.000     0.000     0.000     0.000     0.673    -0.029     0.000     0.115     0.784     1.997     0.000     0.000     0.000     0.000     0.000     0.000     0.000     0.000     0.000     0.000     0.000     0.000     0.000     0.000     0.000     0.000     0.000     0.000     0.000 .00000E+00 .00000E+00 0.250E+01 0.429E+04 0.000E+00 0.280E+04 0.176E+06 0.000E+00 0.000E+00 0.104E-04     0.000     0.001     0.000
PJNL    1 000010001    1    0    8.13850E+01    17.000     0.000     0.000     0.000    52.299    13.607    48.143    49.143     0.000     0.000     0.000     4.707     0.000     0.000   977.986  2000.000     0.014     0.014     0.000     1.306     0.000     1.320    93.442     3.973    12.794    -4.848     7.551    14.230     0.032     0.605     0.000     0.000     0.000     0.000     0.000     0.000     0.000     0.000     0.000     0.000     0.000     0.661    -0.039     0.000     0.113     0.533     1.430     0.000     0.000     0.000     0.073     0.009     0.007     0.001     0.036     0.000     0.000     0.000     0.000     0.000     0.000     0.000     0.000     0.000     0.000     0.000 .00000E+00 .00000E+00 0.250E+01 0.429E+04 0.000E+00 0.000E+00 0.000E+00 0.000E+00 0.000E+00 0.356E-01     0.000     1.306     0.000
PJNL    2 000010002    1    0    8.33594E-01    17.000     0.000     0.000     0.000    52.299    13.895    49.298    50.691     0.000     0.000     0.000     4.707     0.000     0.000   977.986  2000.000     0.017     0.017     0.000     0.000     0.000     0.017    93.543     3.973    12.794    -4.848     7.510    14.230     0.000     0.005     0.000     0.000     0.000     0.000     0.000     0.000     0.000     0.000     0.000     0.000     0.000     0.668    -0.039     0.000     0.115     0.531     1.426     0.000     0.000     0.000     0.000     0.000     0.000     0.001     0.000     0.000     0.000     0.000     0.000     0.000     0.000     0.000     0.000     0.000     0.000     0.000 .00000E+00 .00000E+00 0.250E+01 0.429E+04 0.000E+00 0.000E+00 0.000E+00 0.000E+00 0.000E+00 0.000E+00     0.000     0.000     0.000
WETN    3 000010003    1    0    8.71719E-01    17.000     0.000     0.000     0.000    52.299    13.895    49.298    50.691     0.000     0.000     0.000     1.046     0.000     0.000   995.108  2000.000     0.017     0.017     0.000     0.000     0.000     0.017    93.543     3.973    12.794    -4.848     7.510    14.230     0.000     0.005     0.000     0.000     0.000     0.000     0.000     0.000     0.000     0.000     0.000     0.000     0.000     0.668    -0.039     0.000     0.115     0.531     1.426     0.000     0.000     0.000     0.001     0.000     0.000     0.001     0.000     0.000     0.000     0.000     0.000     0.000     0.000     0.000     0.000     0.000     0.000     0.000 .00000E+00 .00000E+00 0.250E+01 0.429E+04 0.000E+00 0.000E+00 0.000E+00 0.000E+00 0.000E+00 0.000E+00     0.000     0.000     0.000
BARR    4 000010004    1    0    8.22984E+00    17.000     0.000     0.000     0.000    52.299    13.578    48.021    48.979     0.000     0.000     0.000     8.132     0.000     0.000   961.965  2000.000     0.014     0.014     0.000     1.442     0.000     1.456    93.431     3.973    12.794    -4.848     7.556    14.230     0.031     0.731     0.000     0.000     0.000     0.000     0.000     0.000     0.000     0.000     0.000     0.000     0.000     0.660    -0.039     0.000     0.113     0.533     1.430     0.000     0.000     0.000     0.071     0.009     0.007     0.001     0.040     0.000     0.000     0.000     0.000     0.000     0.000     0.000     0.000     0.000     0.000     0.000 .00000E+00 .00000E+00 0.250E+01 0.429E+04 0.000E+00 0.000E+00 0.000E+00 0.000E+00 0.000E+00 0.401E-01     0.000     1.442     0.000
BARR    5 000010005    1    0    8.24999E-02    17.000     0.000     0.000     0.000    52.299    13.895    49.298    50.691     0.000     0.000     0.000     8.132     0.000     0.000   961.965  2000.000     0.017     0.017     0.000     0.000     0.000     0.017    93.543     3.973    12.794    -4.848     7.510    14.230     0.000     0.000     0.000     0.000     0.000     0.000     0.000     0.000     0.000     0.000     0.000     0.000     0.000     0.668    -0.039     0.000     0.115     0.531     1.426     0.000     0.000     0.000     0.000     0.000     0.000     0.001     0.000     0.000     0.000     0.000     0.000     0.000     0.000     0.000     0.000     0.000     0.000     0.000 .00000E+00 .00000E+00 0.250E+01 0.429E+04 0.000E+00 0.000E+00 0.000E+00 0.000E+00 0.000E+00 0.000E+00     0.000     0.000     0.000
WETN    6 000020001    2    0    8.22531E+00    17.000     0.000     0.000     0.000    52.489    13.907    49.233    50.619     0.000     0.000     0.000     1.050     0.000     0.000   995.090  2000.000     0.017     0.017     0.000     0.000     0.000     0.017    93.538     3.973    12.794    -4.848     7.512    14.230     0.000     0.005     0.000     0.000     0.000     0.000     0.000     0.000     0.000     0.000     0.000     0.000     0.000     0.668    -0.039     0.000     0.115     0.531     1.426     0.000     0.000     0.000     0.001     0.000     0.000     0.001     0.000     0.000     0.000     0.000     0.000     0.000     0.000     0.000     0.000     0.000     0.000     0.000 .00000E+00 .00000E+00 0.250E+01 0.429E+04 0.000E+00 0.000E+00 0.000E+00 0.000E+00 0.000E+00 0.000E+00     0.000     0.000     0.000
PJNL    7 000020002    2    0    8.90938E+00    17.000     0.000     0.000     0.000    52.489    13.691    48.376    49.471     0.000     0.000     0.000     4.724     0.000     0.000   977.905  2000.000     0.015     0.015     0.000     0.972     0.000     0.987    93.463     3.973    12.794    -4.848     7.543    14.230     0.018     0.343     0.000     0.000     0.000     0.000     0.000     0.000     0.000     0.000     0.000     0.000     0.000     0.663    -0.039     0.000     0.114     0.532     1.429     0.000     0.000     0.000     0.048     0.006     0.005     0.001     0.026     0.000     0.000     0.000     0.000     0.000     0.000     0.000     0.000     0.000     0.000     0.000 .00000E+00 .00000E+00 0.250E+01 0.429E+04 0.000E+00 0.000E+00 0.000E+00 0.000E+00 0.000E+00 0.256E-01     0.000     0.972     0.000
PJNL    8 000020003    2    0    8.27187E-01    17.000     0.000     0.000     0.000    52.489    13.907    49.233    50.619     0.000     0.000     0.000     4.724     0.000     0.000   977.905  2000.000     0.017     0.017     0.000     0.000     0.000     0.017    93.538     3.973    12.794    -4.848     7.512    14.230     0.000     0.005     0.000     0.000     0.000     0.000     0.000     0.000     0.000     0.000     0.000     0.000     0.000     0.668    -0.039     0.000     0.115     0.531     1.426     0.000     0.000     0.000     0.000     0.000     0.000     0.001     0.000     0.000     0.000     0.000     0.000     0.000     0.000     0.000     0.000     0.000     0.000     0.000 .00000E+00 .00000E+00 0.250E+01 0.429E+04 0.000E+00 0.000E+00 0.000E+00 0.000E+00 0.000E+00 0.000E+00     0.000     0.000     0.000
BARR    9 000020004    2    0    8.10641E+01    17.000     0.000     0.000     0.000    52.489    13.646    48.189    49.221     0.000     0.000     0.000     8.162     0.000     0.000   961.825  2000.000     0.015     0.015     0.000     1.182     0.000     1.196    93.446     3.973    12.794    -4.848     7.550    14.230     0.026     0.500     0.000     0.000     0.000     0.000     0.000     0.000     0.000     0.000     0.000     0.000     0.000     0.662    -0.039     0.000     0.113     0.533     1.429     0.000     0.000     0.000     0.062     0.008     0.006     0.001     0.032     0.000     0.000     0.000     0.000     0.000     0.000     0.000     0.000     0.000     0.000     0.000 .00000E+00 .00000E+00 0.250E+01 0.429E+04 0.000E+00 0.000E+00 0.000E+00 0.000E+00 0.000E+00 0.320E-01     0.000     1.182     0.000
BARR   10 000020005    2    0    8.68751E-02    17.000     0.000     0.000     0.000    52.489    13.907    49.233    50.619     0.000     0.000     0.000     8.162     0.000     0.000   961.825  2000.000     0.017     0.017     0.000     0.000     0.000     0.017    93.538     3.973    12.794    -4.848     7.512    14.230     0.000     0.005     0.000     0.000     0.000     0.000     0.000     0.000     0.000     0.000     0.000     0.000     0.000     0.668    -0.039     0.000     0.115     0.531     1.426     0.000     0.000     0.000     0.000     0.000     0.000     0.001     0.000     0.000     0.000     0.000     0.000     0.000     0.000     0.000     0.000     0.000     0.000     0.000 .00000E+00 .00000E+00 0.250E+01 0.429E+04 0.000E+00 0.000E+00 0.000E+00 0.000E+00 0.000E+00 0.000E+00     0.000     0.000     0.000
[...]
ES12   20 000030010    3    0 1990.68751E-02   478.700     0.000     0.000     0.000   389.955   222.942    86.537   107.727    48.893    51.312     2.566     7.799     0.000     0.000   996.964  2000.269    79.738    79.738     0.000   136.763    43.125   262.434    80.662     4.244     9.795    -1.307     5.643     9.290   285.814   160.953     0.000     0.000     0.000     0.000     0.000     0.000     0.000     0.000     0.000     0.000     0.000     6.230    -5.130     0.000     1.066     1.064     1.093     0.000     0.000     0.000    29.423     3.598     2.901     0.014     0.478     2.019     0.006     0.001     0.000    -0.000   126.000     0.000     0.000     0.000     0.000     0.000 .00000E+00 .00000E+00 0.778E+00 0.429E+04 0.000E+00 0.000E+00 0.000E+00 0.000E+00 0.000E+00 0.478E+00     2.808   136.763     0.000
ES13   21 000030011    3    0 1990.18749E-02   478.700     0.000     0.000     0.000   389.955   222.725    86.496   107.492    47.279    49.494     2.475     7.799     0.000     0.000   996.913  2000.259    79.717    79.717     0.000   138.848    41.096   262.362    80.661     4.244     9.795    -1.307     5.643     9.290   254.438   161.176     0.000     0.000     0.000     0.000     0.000     0.000     0.000     0.000     0.000     0.000     0.000     6.230    -5.129     0.000     1.066     1.064     1.095     0.000     0.000     0.000    29.106     3.559     2.868     0.014     0.486     1.989     0.005     0.001     0.000    -0.000   126.000     0.000     0.000     0.000     0.000     0.000 .00000E+00 .00000E+00 0.778E+00 0.429E+04 0.000E+00 0.280E+04 0.176E+06 0.000E+00 0.000E+00 0.486E+00     2.701   138.848     0.000
PJNL    1 000010001    1    0  9.5.13850E+01  1015.174     0.010     0.010     0.000   439.956   256.883   101.472   109.077   180.001   179.999     9.000    39.596     0.000     0.000   982.540  2000.410   339.994   339.994     0.000   233.683   133.233   715.868    96.051     4.740    11.140    -1.659     6.568    10.640  1186.914   458.353     0.000     0.000     0.000     0.000     0.000     0.000     0.000     0.000     0.000     0.000     0.000     7.900    -4.130     0.000     1.353     2.046     4.343     0.000     0.000     0.000    50.081     6.133     4.904     0.017     1.037     7.286     0.050     0.003     0.000    -0.000   146.132     0.000     0.000     0.000     0.105     0.000 .00000E+00 .00000E+00 0.774E+00 0.000E+00 0.000E+00 0.000E+00 0.000E+00 0.000E+00 0.000E+00 0.104E+01     8.957   233.683     0.000
PJNL    2 000010002    1    0  9.5.33594E-01  1015.174     0.010     0.010     0.000   439.956   262.335   103.094   119.352   405.664   405.613    20.281    39.596     0.000     0.000   986.128  2000.997   341.515   341.500     0.000     0.006   347.191   708.873    96.106     4.740    11.140    -1.659     6.546    10.640     1.741     3.799     0.000     0.000     0.000     0.000     0.000     0.000     0.000     0.000     0.000     0.000     0.000     8.070    -4.226     0.000     1.382     1.758     4.040     0.000     0.000     0.000    17.132     2.097     1.604     0.015     0.000    10.883     0.165     0.053     0.000    -0.000   146.132     0.000     0.000     0.000     0.105     0.000 .00000E+00 .00000E+00 0.774E+00 0.000E+00 0.000E+00 0.000E+00 0.000E+00 0.000E+00 0.000E+00 0.213E-04    20.176     0.006     0.000
WETN    3 000010003    1    0  9.5.71719E-01  1015.174     0.010     0.010     0.000   439.956   259.979   103.649   119.385   407.778   407.582    20.379     8.799     0.000     0.000   998.739  2001.012   341.753   341.752     0.000     0.006   378.536   740.568    96.127     4.740    11.140    -1.659     6.538    10.640     2.763     3.835     0.000     0.000     0.000     0.000     0.000     0.000     0.000     0.000     0.000     0.000     0.000     8.064    -4.220     0.000     1.381     1.781     4.082     0.000     0.000     0.000    22.817     2.793     2.151     0.015     0.000    10.888     0.172     0.044     0.000    -0.000   146.168     0.000     0.000     0.000     0.000     0.000 .00000E+00 .00000E+00 0.777E+00 0.000E+00 0.000E+00 0.000E+00 0.000E+00 0.000E+00 0.000E+00 0.213E-04    20.273     0.006     0.000
BARR    4 000010004    1    0  9.5.22984E+00  1015.174     0.010     0.010     0.000   439.956   253.109   102.112   110.163   164.933   164.931     8.247    68.413     0.000     0.000   963.299  2000.373   340.280   340.281     0.000   252.120    92.120   692.728    96.076     4.740    11.140    -1.659     6.558    10.640  1182.136   552.996     0.000     0.000     0.000     0.000     0.000     0.000     0.000     0.000     0.000     0.000     0.000     7.915    -4.137     0.000     1.356     2.061     4.356     0.000     0.000     0.000    50.078     6.132     4.904     0.018     1.133     6.973     0.034     0.003     0.000     7.305   146.168     0.000     0.000     0.000     0.000     0.000 .00000E+00 .00000E+00 0.776E+00 0.000E+00 0.000E+00 0.000E+00 0.000E+00 0.000E+00 0.000E+00 0.113E+01     8.207   252.120     0.000
BARR    5 000010005    1    0  9.5.24999E-02  1015.174     0.010     0.010     0.000   439.956   259.383   103.782   119.386   408.312   408.079    20.404    68.413     0.000     0.000   972.643  2001.017   341.815   341.802     0.000     0.006   322.130   684.235    96.132     4.740    11.140    -1.659     6.536    10.640     1.308     3.782     0.000     0.000     0.000     0.000     0.000     0.000     0.000     0.000     0.000     0.000     0.000     8.098    -4.241     0.000     1.387     1.746     4.014     0.000     0.000     0.000    13.935     1.705     1.299     0.016     0.000    10.918     0.156     0.058     0.000     4.758   146.168     0.000     0.000     0.000     0.000     0.000 .00000E+00 .00000E+00 0.776E+00 0.000E+00 0.000E+00 0.000E+00 0.000E+00 0.000E+00 0.000E+00 0.214E-04    20.297     0.006     0.000
WETN    6 000020001    2    0  9.5.22531E+00  1015.174     0.010     0.010     0.000   441.368   260.399   103.596   119.376   407.380   407.197    20.360     8.827     0.000     0.000   998.706  2001.010   341.733   341.732     0.000     0.006   378.145   740.137    96.125     4.740    11.140    -1.659     6.539    10.640     3.160     3.811     0.000     0.000     0.000     0.000     0.000     0.000     0.000     0.000     0.000     0.000     0.000     8.056    -4.215     0.000     1.380     1.787     4.095     0.000     0.000     0.000    24.556     3.005     2.320     0.015     0.000    10.881     0.172     0.042     0.000    -0.000   146.168     0.000     0.000     0.000     0.000     0.000 .00000E+00 .00000E+00 0.779E+00 0.000E+00 0.000E+00 0.000E+00 0.000E+00 0.000E+00 0.000E+00 0.213E-04    20.254     0.006     0.000
PJNL    7 000020002    2    0  9.5.90938E+00  1015.174     0.010     0.010     0.000   441.368   258.890   101.887   111.318   225.697   225.695    11.285    39.723     0.000     0.000   983.420  2000.527   340.404   340.404     0.000   185.343   176.425   713.402    96.065     4.740    11.140    -1.659     6.562    10.640   643.101   257.866     0.000     0.000     0.000     0.000     0.000     0.000     0.000     0.000     0.000     0.000     0.000     7.910    -4.135     0.000     1.355     2.010     4.325     0.000     0.000     0.000    49.645     6.078     4.856     0.015     0.798     8.115     0.071     0.004     0.000     0.000   146.132     0.000     0.000     0.000     0.105     0.000 .00000E+00 .00000E+00 0.777E+00 0.000E+00 0.000E+00 0.000E+00 0.000E+00 0.000E+00 0.000E+00 0.798E+00    11.230   185.343     0.000
PJNL    8 000020003    2    0  9.5.27187E-01  1015.174     0.010     0.010     0.000   441.368   262.780   103.034   119.341   405.245   405.209    20.260    39.723     0.000     0.000   986.016  2000.994   341.490   341.476     0.000     0.006   346.692   708.330    96.104     4.740    11.140    -1.659     6.547    10.640     1.698     3.789     0.000     0.000     0.000     0.000     0.000     0.000     0.000     0.000     0.000     0.000     0.000     8.069    -4.226     0.000     1.382     1.757     4.038     0.000     0.000     0.000    16.834     2.060     1.575     0.015     0.000    10.882     0.165     0.053     0.000    -0.000   146.132     0.000     0.000     0.000     0.105     0.000 .00000E+00 .00000E+00 0.776E+00 0.000E+00 0.000E+00 0.000E+00 0.000E+00 0.000E+00 0.000E+00 0.213E-04    20.156     0.006     0.000
BARR    9 000020004    2    0  9.5.10641E+01  1015.174     0.010     0.010     0.000   441.368   254.792   102.419   111.807   197.831   197.829     9.891    68.633     0.000     0.000   965.240  2000.456   340.588   340.588     0.000   217.066   122.949   690.447    96.086     4.740    11.140    -1.659     6.554    10.640   957.111   377.013     0.000     0.000     0.000     0.000     0.000     0.000     0.000     0.000     0.000     0.000     0.000     7.922    -4.140     0.000     1.357     2.036     4.340     0.000     0.000     0.000    49.977     6.120     4.892     0.017     0.954     7.603     0.048     0.003     0.000     6.991   146.168     0.000     0.000     0.000     0.000     0.000 .00000E+00 .00000E+00 0.778E+00 0.000E+00 0.000E+00 0.000E+00 0.000E+00 0.000E+00 0.000E+00 0.954E+00     9.844   217.066     0.000
BARR   10 000020005    2    0  9.5.68751E-02  1015.174     0.010     0.010     0.000   441.368   259.789   103.732   119.377   407.926   407.705    20.385    68.633     0.000     0.000   972.610  2001.014   341.797   341.783     0.000     0.006   321.559   683.627    96.130     4.740    11.140    -1.659     6.537    10.640     1.477     3.757     0.000     0.000     0.000     0.000     0.000     0.000     0.000     0.000     0.000     0.000     0.000     8.093    -4.238     0.000     1.386     1.752     4.027     0.000     0.000     0.000    15.252     1.867     1.424     0.016     0.000    10.912     0.155     0.056     0.000     4.927   146.168     0.000     0.000     0.000     0.000     0.000 .00000E+00 .00000E+00 0.778E+00 0.000E+00 0.000E+00 0.000E+00 0.000E+00 0.000E+00 0.000E+00 0.213E-04    20.279     0.006     0.000
PJNL   11 000030001    3    0  9.5.12831E+01  1015.174     0.010     0.010     0.000   441.778   269.328    97.321    99.607   178.293   178.292     8.915    39.760     0.000     0.000   982.006  2000.386   337.939   337.939     0.000   225.994   131.504   704.311    95.883     4.740    11.140    -1.659     6.635    10.640  1091.830   422.670     0.000     0.000     0.000     0.000     0.000     0.000     0.000     0.000     0.000     0.000     0.000     7.862    -4.111     0.000     1.347     2.038     4.337     0.000     0.000     0.000    50.042     6.128     4.899     0.016     1.002     7.334     0.051     0.003     0.000    -0.000   146.132     0.000     0.000     0.000     0.105     0.000 .00000E+00 .00000E+00 0.772E+00 0.000E+00 0.000E+00 0.000E+00 0.000E+00 0.000E+00 0.000E+00 0.100E+01     8.874   225.994     0.000
PJNL   12 000030002    3    0  9.5.19844E-01  1015.174     0.010     0.010     0.000   441.778   274.789    99.346   110.304   395.592   395.587    19.779    39.760     0.000     0.000   985.727  2000.946   340.082   340.070     0.000     0.006   337.544   697.300    95.956     4.740    11.140    -1.659     6.606    10.640     1.629     3.829     0.000     0.000     0.000     0.000     0.000     0.000     0.000     0.000     0.000     0.000     0.000     8.036    -4.210     0.000     1.377     1.753     4.033     0.000     0.000     0.000    16.357     2.002     1.530     0.015     0.000    10.834     0.164     0.054     0.000    -0.000   146.132     0.000     0.000     0.000     0.105     0.000 .00000E+00 .00000E+00 0.772E+00 0.000E+00 0.000E+00 0.000E+00 0.000E+00 0.000E+00 0.000E+00 0.212E-04    19.680     0.006     0.000
BARR   13 000030003    3    0  9.5.42609E+00  1015.174     0.010     0.010     0.000   441.778   254.237   102.211   110.805   179.570   179.568     8.978    68.696     0.000     0.000   964.116  2000.410   340.407   340.408     0.000   236.164   105.655   691.163    96.079     4.740    11.140    -1.659     6.556    10.640  1071.809   466.587     0.000     0.000     0.000     0.000     0.000     0.000     0.000     0.000     0.000     0.000     0.000     7.917    -4.138     0.000     1.356     2.050     4.349     0.000     0.000     0.000    50.037     6.128     4.899     0.018     1.051     7.262     0.040     0.003     0.000     7.273   146.168     0.000     0.000     0.000     0.000     0.000 .00000E+00 .00000E+00 0.779E+00 0.000E+00 0.000E+00 0.000E+00 0.000E+00 0.000E+00 0.000E+00 0.105E+01     8.935   236.164     0.000
BARR   14 000030004    3    0  9.5.29688E-02  1015.174     0.010     0.010     0.000   441.778   259.907   103.718   119.375   407.813   407.595    20.380    68.696     0.000     0.000   972.556  2001.013   341.791   341.778     0.000     0.006   321.397   683.454    96.129     4.740    11.140    -1.659     6.537    10.640     1.335     3.755     0.000     0.000     0.000     0.000     0.000     0.000     0.000     0.000     0.000     0.000     0.000     8.096    -4.240     0.000     1.387     1.747     4.017     0.000     0.000     0.000    14.154     1.732     1.320     0.016     0.000    10.914     0.155     0.057     0.000     4.975   146.168     0.000     0.000     0.000     0.000     0.000 .00000E+00 .00000E+00 0.778E+00 0.000E+00 0.000E+00 0.000E+00 0.000E+00 0.000E+00 0.000E+00 0.214E-04    20.274     0.006     0.000
WETN   15 000030005    3    0  9.5.25625E-01  1015.174     0.010     0.010     0.000   441.778   260.521   103.580   119.374   407.263   407.084    20.354     8.836     0.000     0.000   998.696  2001.009   341.727   341.726     0.000     0.006   378.031   740.012    96.124     4.740    11.140    -1.659     6.539    10.640     2.443     3.799     0.000     0.000     0.000     0.000     0.000     0.000     0.000     0.000     0.000     0.000     0.000     8.068    -4.223     0.000     1.382     1.775     4.071     0.000     0.000     0.000    21.231     2.598     1.998     0.015     0.000    10.890     0.172     0.047     0.000     0.000   146.168     0.000     0.000     0.000     0.000     0.000 .00000E+00 .00000E+00 0.780E+00 0.000E+00 0.000E+00 0.000E+00 0.000E+00 0.000E+00 0.000E+00 0.213E-04    20.248     0.006     0.000
ES10   16 000030006    3    0  9.5.33750E-01  1015.174     0.010     0.010     0.000   441.778   254.974   102.422   111.874   199.712   199.710     9.986     8.836     0.000     0.000   997.540  2000.461   340.598   340.598     0.000   214.986   181.147   746.668    96.086     4.740    11.140    -1.659     6.554    10.640   629.291   368.189     0.000     0.000     0.000     0.000     0.000     0.000     0.000     0.000     0.000     0.000     0.000     7.923    -4.141     0.000     1.357     2.033     4.346     0.000     0.000     0.000    49.616     6.075     4.853     0.017     0.943     7.639     0.065     0.004     0.000     7.007   146.168     0.000     0.000     0.000     0.000     0.000 .00000E+00 .00000E+00 0.779E+00 0.000E+00 0.000E+00 0.000E+00 0.000E+00 0.000E+00 0.000E+00 0.943E+00     9.937   214.986     0.000
ES9    17 000030007    3    0  9.5.15625E-01  1015.174     0.010     0.010     0.000   441.778   254.896   102.401   111.754   197.446   197.444     9.872     8.836     0.000     0.000   997.526  2000.455   340.578   340.578     0.000   217.361   178.996   746.760    96.085     4.740    11.140    -1.659     6.554    10.640   589.993   378.311     0.000     0.000     0.000     0.000     0.000     0.000     0.000     0.000     0.000     0.000     0.000     7.923    -4.141     0.000     1.357     2.034     4.348     0.000     0.000     0.000    49.541     6.066     4.846     0.017     0.955     7.598     0.065     0.004     0.000     7.036   146.168     0.000     0.000     0.000     0.000     0.000 .00000E+00 .00000E+00 0.779E+00 0.000E+00 0.000E+00 0.000E+00 0.000E+00 0.000E+00 0.000E+00 0.955E+00     9.824   217.361     0.000
ES9    18 000030008    3    0  9.5.31258E-03  1015.174     0.010     0.010     0.000   441.778   259.907   103.718   119.375   407.813   407.595    20.380     8.836     0.000     0.000   998.757  2001.013   341.791   341.778     0.000     0.006   378.510   740.568    96.129     4.740    11.140    -1.659     6.537    10.640     0.997     3.741     0.000     0.000     0.000     0.000     0.000     0.000     0.000     0.000     0.000     0.000     0.000     8.106    -4.246     0.000     1.388     1.734     3.989     0.000     0.000     0.000    11.270     1.379     1.047     0.016     0.000    10.922     0.173     0.063     0.000     4.975   146.168     0.000     0.000     0.000     0.000     0.000 .00000E+00 .00000E+00 0.778E+00 0.000E+00 0.000E+00 0.000E+00 0.000E+00 0.000E+00 0.000E+00 0.214E-04    20.274     0.006     0.000
ES11   19 000030009    3    0  9.5.18281E-01  1015.174     0.010     0.010     0.000   441.778   253.060   101.888   109.346   152.472   152.471     7.624     8.836     0.000     0.000   997.230  2000.341   340.100   340.100     0.000   264.894   136.302   748.884    96.068     4.740    11.140    -1.659     6.561    10.640   999.513   625.962     0.000     0.000     0.000     0.000     0.000     0.000     0.000     0.000     0.000     0.000     0.000     7.911    -4.134     0.000     1.355     2.070     4.368     0.000     0.000     0.000    49.998     6.122     4.895     0.019     1.202     6.722     0.045     0.003     0.000     7.664   146.168     0.000     0.000     0.000     0.000     0.000 .00000E+00 .00000E+00 0.779E+00 0.000E+00 0.000E+00 0.000E+00 0.000E+00 0.000E+00 0.000E+00 0.120E+01     7.588   264.894     0.000
ES12   20 000030010    3    0  9.5.68751E-02  1015.174     0.010     0.010     0.000   441.778   251.560   101.499   107.727   123.734   123.733     6.187     8.836     0.000     0.000   996.964  2000.269   339.678   339.678     0.000   295.718   109.029   750.584    96.056     4.740    11.140    -1.659     6.566    10.640  1191.564   846.048     0.000     0.000     0.000     0.000     0.000     0.000     0.000     0.000     0.000     0.000     0.000     7.902    -4.130     0.000     1.353     2.093     4.383     0.000     0.000     0.000    50.078     6.132     4.905     0.021     1.373     6.093     0.034     0.003     0.000     8.126   146.168     0.000     0.000     0.000     0.000     0.000 .00000E+00 .00000E+00 0.778E+00 0.000E+00 0.000E+00 0.000E+00 0.000E+00 0.000E+00 0.000E+00 0.137E+01     6.158   295.718     0.000
ES13   21 000030011    3    0  9.5.18749E-02  1015.174     0.010     0.010     0.000   441.778   251.325   101.436   107.492   119.669   119.668     5.983     8.836     0.000     0.000   996.913  2000.259   339.606   339.606     0.000   300.114   105.173   750.849    96.054     4.740    11.140    -1.659     6.566    10.640  1060.763   875.877     0.000     0.000     0.000     0.000     0.000     0.000     0.000     0.000     0.000     0.000     0.000     7.900    -4.129     0.000     1.353     2.096     4.389     0.000     0.000     0.000    50.026     6.126     4.899     0.021     1.398     5.998     0.032     0.003     0.000     8.199   146.168     0.000     0.000     0.000     0.000     0.000 .00000E+00 .00000E+00 0.778E+00 0.000E+00 0.000E+00 0.280E+04 0.176E+06 0.000E+00 0.000E+00 0.140E+01     5.956   300.114     0.000
