1
    SWAT Nov 14  VER 2023/Rev 692                                                                        0/ 0/   0      0: 0: 0

    General Input/Output section (file.cio):                                        
    5/19/2025 12:00:00 AM ARCGIS-SWAT interface AV                                  
                                                                                    
         Number of years in run:   10
         Area of watershed:        5.790 km2
1
    SWAT Nov 14  VER 2023/Rev 692                                                   

    General Input/Output section (file.cio):                                        
    5/19/2025 12:00:00 AM ARCGIS-SWAT interface AV                                  
                                                                                    
Annual Summary for Watershed in year    1 of simulation

UNIT                                    PERCO    TILE                           WATER     SED     NO3     NO3     NO3     NO3        N       P       P
TIME     PREC    SURQ    LATQ     GWQ    LATE       Q     SW       ET     PET   YIELD   YIELD    SURQ    LATQ    PERC    CROP  ORGANIC SOLUBLE ORGANIC TILENO3
         (mm)    (mm)    (mm)    (mm)    (mm)    (mm)    (mm)    (mm)    (mm)    (mm)   (t/ha)  ------------------(kg nutrient/ha)-------------------- (kg/ha)
    4    3.10    0.00    0.02    0.00    0.00    0.00   61.73    6.78   19.15    0.02    0.00    0.00    0.00    0.00    0.00     0.00    0.00    0.00    0.00
    5   11.30    0.00    0.42    0.00    0.00    0.00   57.28   15.28   53.31    0.42    0.00    0.00    0.01    0.00    0.00     0.00    0.00    0.00    0.00
    6    8.00    0.00    0.38    0.00    0.00    0.00   51.51   13.45   59.93    0.38    0.00    0.00    0.01    0.00    0.00     0.00    0.00    0.00    0.00
    7    5.20    0.00    0.00    0.00    0.00    0.00   46.33   10.37   60.47    0.00    0.00    0.00    0.00    0.00    0.00     0.00    0.00    0.00    0.00
    8   17.00    0.01    1.13    0.00    0.00    0.00   48.33   13.82   52.45    1.15    0.02    0.00    0.03    0.00    0.00     0.05    0.00    0.01    0.00
    9   23.00    0.10    1.95    0.00    0.00    0.00   52.17   17.13   45.01    2.05    0.24    0.00    0.02    0.00    0.00     0.51    0.00    0.06    0.00
   10   49.40    1.55    6.39    0.00    0.00    0.00   77.22   15.73   30.75    7.94    3.95    0.00    0.02    0.00    0.00     9.64    0.00    1.18    0.00
   11  115.80   22.65   25.34    0.01    5.54    0.00  119.75   18.83   19.43   47.88   66.53    0.01    0.53    0.95    0.00   100.39    0.00   12.30    0.00
   12  187.70   69.59   44.48    1.34   53.43    0.00  119.99   17.94   18.25  115.25  181.33    0.02    0.94    8.30    0.00    71.74    0.01    8.79    0.00

 1981  420.50   93.90   80.12    1.34   58.97    0.00  119.99  129.33  358.76  175.09  252.07    0.03    1.56    9.24    0.00   182.33    0.01   22.33    0.00
1
    SWAT Nov 14  VER 2023/Rev 692                                                   

    General Input/Output section (file.cio):                                        
    5/19/2025 12:00:00 AM ARCGIS-SWAT interface AV                                  
                                                                                    
Annual Summary for Watershed in year    2 of simulation

UNIT                                    PERCO    TILE                           WATER     SED     NO3     NO3     NO3     NO3        N       P       P
TIME     PREC    SURQ    LATQ     GWQ    LATE       Q     SW       ET     PET   YIELD   YIELD    SURQ    LATQ    PERC    CROP  ORGANIC SOLUBLE ORGANIC TILENO3
         (mm)    (mm)    (mm)    (mm)    (mm)    (mm)    (mm)    (mm)    (mm)    (mm)   (t/ha)  ------------------(kg nutrient/ha)-------------------- (kg/ha)
    1  205.90   74.03   54.09    9.80   63.93    0.00  120.01   13.36   13.36  138.51  189.19    0.00    0.76    7.43    0.00    31.41    0.00    3.85    0.00
    2  310.00  153.62   63.86   36.74   71.78    0.00  120.00   22.57   22.57  255.51  514.23    0.00    0.55    5.60    0.00     3.05    0.00    0.37    0.00
    3  142.10   49.96   33.64   53.89   35.57    0.00  118.24   26.17   26.62  139.22  154.78    0.00    0.20    2.02    0.00     0.28    0.00    0.03    0.00
    4   72.50   20.40   14.21   44.05   12.83    0.00  115.95   27.96   32.50   80.47   51.36    0.00    0.07    0.64    0.00     0.12    0.00    0.02    0.00
    5   16.80    0.84    1.30   22.34    0.00    0.00  102.06   28.66   52.67   26.18    2.92    0.00    0.00    0.00    0.00     0.00    0.00    0.00    0.00
    6    7.70    0.00    0.22    1.93    0.00    0.00   89.79   19.80   58.64    3.46    0.00    0.00    0.00    0.00    0.00     0.00    0.00    0.00    0.00
    7    6.70    0.00    0.00    0.42    0.00    0.00   80.61   15.88   61.37    1.47    0.00    0.00    0.00    0.00    0.00     0.00    0.00    0.00    0.00
    8   12.30    0.00    0.48    0.03    0.00    0.00   77.40   14.98   42.24    1.30    0.00    0.00    0.00    0.00    0.00     0.00    0.00    0.00    0.00
    9   21.90    0.73    1.50    0.00    0.00    0.00   79.64   17.14   41.35    2.78    1.76    0.00    0.00    0.00    0.00     0.00    0.00    0.00    0.00
   10   74.00    8.08   11.29    0.00    0.72    0.00  113.55   19.30   24.68   19.80   29.94    0.00    0.02    0.03    0.00     0.05    0.00    0.01    0.00
   11  115.80   31.80   30.11    0.86   30.31    0.00  119.99   17.45   17.52   63.13  113.29    0.00    0.21    1.89    0.00     0.19    0.00    0.02    0.00
   12   77.20   21.75   19.37    5.03   20.44    0.00  119.60   16.50   17.27   46.67   70.40    0.00    0.13    1.18    0.00     0.11    0.00    0.01    0.00

 1982 1062.90  361.21  230.08  175.10  235.59    0.00  119.60  239.78  410.78  778.49 1127.88    0.02    1.93   18.79    0.00    35.22    0.01    4.31    0.00
1
    SWAT Nov 14  VER 2023/Rev 692                                                   

    General Input/Output section (file.cio):                                        
    5/19/2025 12:00:00 AM ARCGIS-SWAT interface AV                                  
                                                                                    
Annual Summary for Watershed in year    3 of simulation

UNIT                                    PERCO    TILE                           WATER     SED     NO3     NO3     NO3     NO3        N       P       P
TIME     PREC    SURQ    LATQ     GWQ    LATE       Q     SW       ET     PET   YIELD   YIELD    SURQ    LATQ    PERC    CROP  ORGANIC SOLUBLE ORGANIC TILENO3
         (mm)    (mm)    (mm)    (mm)    (mm)    (mm)    (mm)    (mm)    (mm)    (mm)   (t/ha)  ------------------(kg nutrient/ha)-------------------- (kg/ha)
    1  152.70   55.78   35.68   16.01   42.38    0.00  120.01   17.05   17.05  108.07  156.88    0.00    0.21    2.14    0.00    27.74    0.00    3.40    0.00
    2  196.00  111.12   29.20   24.88   31.70    0.00  120.00   24.10   24.71  166.11  436.89    0.00    0.14    1.36    0.00     2.62    0.00    0.32    0.00
    3  255.90  118.61   46.71   34.75   53.18    0.00  120.01   35.98   36.08  200.53  361.89    0.00    0.18    1.89    0.00     0.62    0.00    0.08    0.00
    4  102.50   27.70   24.86   38.31   22.91    0.00  117.45   32.34   33.15   93.03   95.72    0.00    0.08    0.69    0.00     0.21    0.00    0.03    0.00
    5   19.80    0.46    1.28   23.29    0.00    0.00  104.25   31.44   45.73   26.47    1.78    0.00    0.00    0.00    0.00     0.00    0.00    0.00    0.00
    6   12.30    0.03    0.37    2.88    0.00    0.00   94.02   22.12   49.18    4.45    0.11    0.00    0.00    0.00    0.00     0.00    0.00    0.00    0.00
    7   11.00    0.00    0.22    0.63    0.00    0.00   85.43   19.38   49.81    1.80    0.00    0.00    0.00    0.00    0.00     0.00    0.00    0.00    0.00
    8   12.80    0.00    0.43    0.05    0.00    0.00   80.84   16.93   45.63    1.19    0.00    0.00    0.00    0.00    0.00     0.00    0.00    0.00    0.00
    9   30.90    0.92    2.70    0.00    0.00    0.00   88.87   18.86   38.65    4.14    2.92    0.00    0.00    0.00    0.00     0.00    0.00    0.00    0.00
   10   48.80    5.24    6.21    0.00    0.00    0.00  103.45   23.12   32.97   11.85   13.19    0.00    0.00    0.00    0.00     0.02    0.00    0.00    0.00
   11   56.00   13.54    8.44    0.01    1.42    0.00  116.81   18.56   23.58   22.22   32.94    0.00    0.02    0.05    0.00     0.06    0.00    0.01    0.00
   12  212.00   79.29   52.00    2.09   61.47    0.00  119.97   14.21   14.29  133.63  193.29    0.00    0.30    2.67    0.00     0.39    0.00    0.05    0.00

 1983 1110.70  412.70  208.10  142.90  213.06    0.00  119.97  274.11  410.81  773.50 1295.61    0.02    0.94    8.80    0.00    31.66    0.01    3.88    0.00
1
    SWAT Nov 14  VER 2023/Rev 692                                                   

    General Input/Output section (file.cio):                                        
    5/19/2025 12:00:00 AM ARCGIS-SWAT interface AV                                  
                                                                                    
Annual Summary for Watershed in year    4 of simulation

UNIT                                    PERCO    TILE                           WATER     SED     NO3     NO3     NO3     NO3        N       P       P
TIME     PREC    SURQ    LATQ     GWQ    LATE       Q     SW       ET     PET   YIELD   YIELD    SURQ    LATQ    PERC    CROP  ORGANIC SOLUBLE ORGANIC TILENO3
         (mm)    (mm)    (mm)    (mm)    (mm)    (mm)    (mm)    (mm)    (mm)    (mm)   (t/ha)  ------------------(kg nutrient/ha)-------------------- (kg/ha)
    1  211.40   81.89   52.40   22.08   62.17    0.00  120.01   14.13   14.13  157.00  240.09    0.00    0.21    2.08    0.00    28.98    0.00    3.55    0.00
    2  434.00  242.63   77.64   46.31   91.41    0.00  120.01   21.68   21.68  367.60  562.06    0.00    0.21    2.10    0.00     1.87    0.00    0.23    0.00
    3  258.50  106.51   56.69   68.09   63.71    0.00  120.01   31.94   32.05  233.36  217.05    0.00    0.10    1.02    0.00     0.50    0.00    0.06    0.00
    4   79.60   14.58   18.89   58.45   13.51    0.00  116.73   39.43   42.50   94.55   45.44    0.00    0.03    0.20    0.00     0.08    0.00    0.01    0.00
    5   41.00    4.16    3.84   32.97    0.20    0.00  109.19   40.43   51.10   43.10   10.15    0.00    0.00    0.00    0.00     0.01    0.00    0.00    0.00
    6   23.60    0.11    1.16    4.16    0.00    0.00   98.68   32.83   53.22    7.11    0.28    0.00    0.00    0.00    0.00     0.00    0.00    0.00    0.00
    7    6.90    0.00    0.03    0.87    0.00    0.00   88.57   16.99   54.41    2.24    0.00    0.00    0.00    0.00    0.00     0.00    0.00    0.00    0.00
    8   13.30    0.00    0.84    0.07    0.00    0.00   84.67   16.35   45.54    1.92    0.00    0.00    0.00    0.00    0.00     0.00    0.00    0.00    0.00
    9   15.70    0.15    1.19    0.01    0.00    0.00   83.97   15.05   36.84    2.08    0.26    0.00    0.00    0.00    0.00     0.00    0.00    0.00    0.00
   10   79.10   13.84   10.77    0.03    0.65    0.00  113.69   23.92   30.97   25.19   36.99    0.00    0.01    0.02    0.00     0.06    0.00    0.01    0.00
   11  122.50   44.78   24.69    0.45   28.62    0.00  120.00   14.81   14.92   69.92  145.36    0.00    0.11    0.90    0.00     0.15    0.00    0.02    0.00
   12  185.00   75.84   44.18    8.84   51.49    0.00  120.00   13.42   13.51  129.66  187.48    0.00    0.17    1.47    0.00     0.31    0.00    0.04    0.00

 1984 1470.60  584.51  292.34  242.32  311.77    0.00  120.00  280.99  410.88 1133.73 1445.16    0.01    0.85    7.79    0.00    31.96    0.01    3.91    0.00
1
    SWAT Nov 14  VER 2023/Rev 692                                                   

    General Input/Output section (file.cio):                                        
    5/19/2025 12:00:00 AM ARCGIS-SWAT interface AV                                  
                                                                                    
Annual Summary for Watershed in year    5 of simulation

UNIT                                    PERCO    TILE                           WATER     SED     NO3     NO3     NO3     NO3        N       P       P
TIME     PREC    SURQ    LATQ     GWQ    LATE       Q     SW       ET     PET   YIELD   YIELD    SURQ    LATQ    PERC    CROP  ORGANIC SOLUBLE ORGANIC TILENO3
         (mm)    (mm)    (mm)    (mm)    (mm)    (mm)    (mm)    (mm)    (mm)    (mm)   (t/ha)  ------------------(kg nutrient/ha)-------------------- (kg/ha)
    1  162.30   50.81   45.22   30.62   52.99    0.00  120.01   13.07   13.07  127.55  131.47    0.00    0.14    1.27    0.00    25.53    0.00    3.12    0.00
    2  217.30   94.38   50.18   38.68   57.28    0.00  120.00   16.32   16.32  184.61  261.53    0.00    0.12    1.12    0.00     3.92    0.00    0.48    0.00
    3  192.10   70.83   41.66   49.21   46.50    0.00  120.01   32.24   34.51  163.04  158.41    0.00    0.08    0.77    0.00     0.31    0.00    0.04    0.00
    4   68.20    7.06   18.11   43.62   13.40    0.00  118.58   34.60   34.93   71.14   21.89    0.00    0.03    0.21    0.00     0.06    0.00    0.01    0.00
    5   23.50    0.76    1.87   23.18    0.00    0.00  107.57   32.03   47.58   27.55    2.24    0.00    0.00    0.00    0.00     0.00    0.00    0.00    0.00
    6   15.30    0.00    0.90    2.88    0.00    0.00   97.90   24.15   45.69    5.15    0.00    0.00    0.00    0.00    0.00     0.00    0.00    0.00    0.00
    7    7.50    0.00    0.05    0.60    0.00    0.00   89.04   16.32   44.64    1.75    0.00    0.00    0.00    0.00    0.00     0.00    0.00    0.00    0.00
    8   13.10    0.33    0.67    0.03    0.00    0.00   85.32   15.66   50.56    1.85    0.99    0.00    0.00    0.00    0.00     0.00    0.00    0.00    0.00
    9   28.20    0.26    2.72    0.00    0.00    0.00   89.92   20.57   42.43    3.57    0.79    0.00    0.00    0.00    0.00     0.00    0.00    0.00    0.00
   10   36.60    6.14    3.46    0.00    0.00    0.00   99.05   17.50   34.92    9.94   25.77    0.00    0.00    0.00    0.00     0.02    0.00    0.00    0.00
   11   60.70   18.71    7.97    0.02    0.50    0.00  113.52   19.16   23.75   27.12   53.92    0.00    0.02    0.01    0.00     0.07    0.00    0.01    0.00
   12  162.60   59.31   36.41    0.80   41.77    0.00  119.99   15.86   15.97   96.43  103.84    0.00    0.17    1.40    0.00     0.16    0.00    0.02    0.00

 1985  987.40  308.57  209.22  189.64  212.44    0.00  119.99  257.49  404.37  719.70  760.85    0.02    0.56    4.80    0.00    30.08    0.00    3.68    0.00
1
    SWAT Nov 14  VER 2023/Rev 692                                                   

    General Input/Output section (file.cio):                                        
    5/19/2025 12:00:00 AM ARCGIS-SWAT interface AV                                  
                                                                                    
Annual Summary for Watershed in year    6 of simulation

UNIT                                    PERCO    TILE                           WATER     SED     NO3     NO3     NO3     NO3        N       P       P
TIME     PREC    SURQ    LATQ     GWQ    LATE       Q     SW       ET     PET   YIELD   YIELD    SURQ    LATQ    PERC    CROP  ORGANIC SOLUBLE ORGANIC TILENO3
         (mm)    (mm)    (mm)    (mm)    (mm)    (mm)    (mm)    (mm)    (mm)    (mm)   (t/ha)  ------------------(kg nutrient/ha)-------------------- (kg/ha)
    1  296.10  132.52   67.90   14.64   80.50    0.00  120.00   14.60   14.61  215.69  343.39    0.00    0.24    2.20    0.00    29.24    0.00    3.58    0.00
    2  312.30  163.50   58.99   43.02   69.15    0.00  120.01   20.07   20.07  266.42  496.14    0.00    0.14    1.35    0.00     0.78    0.00    0.10    0.00
    3  182.80   53.59   50.65   60.79   53.88    0.00  116.54   31.14   31.89  167.41  109.09    0.00    0.09    0.83    0.00     0.22    0.00    0.03    0.00
    4  117.50   34.11   22.34   52.78   23.18    0.00  120.01   33.19   33.69  110.81  112.95    0.00    0.03    0.33    0.00     0.09    0.00    0.01    0.00
    5   35.30    2.19    7.32   33.74    3.39    0.00  108.52   36.14   55.56   45.74    3.93    0.00    0.01    0.05    0.00     0.03    0.00    0.00    0.00
    6   10.10    0.00    0.57    5.42    0.00    0.00   93.25   25.17   61.90    7.61    0.00    0.00    0.00    0.00    0.00     0.00    0.00    0.00    0.00
    7   16.80    0.00    0.78    0.95    0.00    0.00   87.46   21.80   54.52    3.03    0.00    0.00    0.00    0.00    0.00     0.00    0.00    0.00    0.00
    8   23.10    3.56    1.57    0.09    0.00    0.00   84.08   21.36   56.91    6.20   12.48    0.00    0.00    0.00    0.00     0.01    0.00    0.00    0.00
    9   25.00    0.82    2.13    0.01    0.00    0.00   87.22   18.87   38.41    3.67    1.76    0.00    0.00    0.00    0.00     0.00    0.00    0.00    0.00
   10   37.10    3.07    3.81    0.00    0.00    0.00   98.09   19.19   28.90    7.41   14.69    0.00    0.00    0.00    0.00     0.01    0.00    0.00    0.00
   11   61.50   15.00    9.48    0.13    1.02    0.00  114.45   19.84   21.61   25.02   30.71    0.00    0.02    0.03    0.00     0.04    0.00    0.01    0.00
   12  148.70   54.51   31.46    0.72   37.02    0.00  119.99   17.02   17.29   86.77  153.31    0.00    0.14    1.18    0.00     0.16    0.00    0.02    0.00

 1986 1266.30  462.88  257.01  212.30  268.13    0.00  119.99  278.38  435.36  945.77 1278.44    0.02    0.68    5.97    0.00    30.59    0.01    3.75    0.00
1
    SWAT Nov 14  VER 2023/Rev 692                                                   

    General Input/Output section (file.cio):                                        
    5/19/2025 12:00:00 AM ARCGIS-SWAT interface AV                                  
                                                                                    
Annual Summary for Watershed in year    7 of simulation

UNIT                                    PERCO    TILE                           WATER     SED     NO3     NO3     NO3     NO3        N       P       P
TIME     PREC    SURQ    LATQ     GWQ    LATE       Q     SW       ET     PET   YIELD   YIELD    SURQ    LATQ    PERC    CROP  ORGANIC SOLUBLE ORGANIC TILENO3
         (mm)    (mm)    (mm)    (mm)    (mm)    (mm)    (mm)    (mm)    (mm)    (mm)   (t/ha)  ------------------(kg nutrient/ha)-------------------- (kg/ha)
    1  265.30  116.80   60.24   13.33   70.83    0.00  120.01   16.98   16.98  190.58  341.34    0.00    0.21    1.90    0.00    28.93    0.00    3.54    0.00
    2  224.90  111.91   44.31   38.57   50.37    0.00  120.01   18.79   18.79  196.32  233.32    0.00    0.11    1.05    0.00     0.55    0.00    0.07    0.00
    3   92.20   23.94   23.07   45.98   20.52    0.00  110.49   37.28   43.80   94.78   68.86    0.00    0.05    0.38    0.00     0.09    0.00    0.01    0.00
    4   34.80    8.71    2.49   27.48    0.00    0.00  105.49   28.62   40.04   40.14   47.51    0.00    0.00    0.00    0.00     0.03    0.00    0.00    0.00
    5   14.40    0.11    0.84    4.35    0.00    0.00   92.83   26.11   63.85    6.55    0.40    0.00    0.00    0.00    0.00     0.00    0.00    0.00    0.00
    6    8.30    0.00    0.08    0.62    0.00    0.00   84.58   16.46   57.09    1.65    0.00    0.00    0.00    0.00    0.00     0.00    0.00    0.00    0.00
    7   10.30    0.00    0.34    0.04    0.00    0.00   77.36   17.20   54.66    1.12    0.00    0.00    0.00    0.00    0.00     0.00    0.00    0.00    0.00
    8   14.90    0.00    0.97    0.00    0.00    0.00   73.61   17.64   64.51    1.52    0.00    0.00    0.00    0.00    0.00     0.00    0.00    0.00    0.00
    9   23.50    0.22    2.00    0.00    0.00    0.00   76.47   18.34   49.29    2.62    0.83    0.00    0.00    0.00    0.00     0.00    0.00    0.00    0.00
   10   34.40    3.28    3.79    0.00    0.00    0.00   86.05   17.81   28.08    7.38    6.92    0.00    0.00    0.00    0.00     0.01    0.00    0.00    0.00
   11   82.70   11.02   15.69    0.02    4.22    0.00  117.98   18.74   20.10   26.94   29.16    0.00    0.05    0.15    0.00     0.03    0.00    0.00    0.00
   12  113.70   25.49   34.18    1.45   37.97    0.00  119.93   14.34   14.49   61.42   59.86    0.00    0.17    1.42    0.00     0.07    0.00    0.01    0.00

 1987  919.40  301.49  188.00  131.83  183.91    0.00  119.93  248.32  471.66  631.02  788.21    0.01    0.59    4.90    0.00    29.71    0.00    3.64    0.00
1
    SWAT Nov 14  VER 2023/Rev 692                                                   

    General Input/Output section (file.cio):                                        
    5/19/2025 12:00:00 AM ARCGIS-SWAT interface AV                                  
                                                                                    
Annual Summary for Watershed in year    8 of simulation

UNIT                                    PERCO    TILE                           WATER     SED     NO3     NO3     NO3     NO3        N       P       P
TIME     PREC    SURQ    LATQ     GWQ    LATE       Q     SW       ET     PET   YIELD   YIELD    SURQ    LATQ    PERC    CROP  ORGANIC SOLUBLE ORGANIC TILENO3
         (mm)    (mm)    (mm)    (mm)    (mm)    (mm)    (mm)    (mm)    (mm)    (mm)   (t/ha)  ------------------(kg nutrient/ha)-------------------- (kg/ha)
    1  186.60   61.79   48.25    8.41   58.03    0.00  120.00   16.70   16.70  118.89  144.60    0.00    0.19    1.86    0.00    25.94    0.00    3.17    0.00
    2  190.60   93.96   36.01   31.40   37.28    0.00  120.00   25.59   25.90  162.45  316.57    0.00    0.11    0.96    0.00     3.13    0.00    0.38    0.00
    3  149.20   51.62   28.43   36.71   31.21    0.00  120.00   36.33   37.46  117.78  136.97    0.00    0.07    0.74    0.00     0.16    0.00    0.02    0.00
    4   87.10   19.01   18.53   30.24   15.02    0.00  118.33   38.07   40.02   69.39   46.22    0.00    0.04    0.34    0.00     0.07    0.00    0.01    0.00
    5   26.40    0.94    2.36   11.10    0.00    0.00  104.26   37.24   63.69   15.67    2.96    0.00    0.00    0.00    0.00     0.00    0.00    0.00    0.00
    6    6.40    0.00    0.21    1.26    0.00    0.00   91.61   18.95   58.38    2.48    0.00    0.00    0.00    0.00    0.00     0.00    0.00    0.00    0.00
    7    5.90    0.00    0.11    0.29    0.00    0.00   79.49   17.91   68.18    1.20    0.00    0.00    0.00    0.00    0.00     0.00    0.00    0.00    0.00
    8    9.60    0.00    0.52    0.02    0.00    0.00   75.73   12.79   55.15    1.14    0.00    0.00    0.00    0.00    0.00     0.00    0.00    0.00    0.00
    9   21.10    0.25    1.69    0.00    0.00    0.00   78.10   16.79   39.87    2.37    0.90    0.00    0.00    0.00    0.00     0.00    0.00    0.00    0.00
   10   37.40    2.67    4.40    0.00    0.00    0.00   91.89   16.55   25.66    7.40    7.79    0.00    0.00    0.00    0.00     0.01    0.00    0.00    0.00
   11   59.40    6.52    9.91    0.00    0.93    0.00  114.64   18.50   19.26   16.66   11.71    0.00    0.02    0.03    0.00     0.02    0.00    0.00    0.00
   12  129.90   35.85   34.74    0.73   38.45    0.00  119.97   14.34   15.22   71.47   75.38    0.00    0.18    1.51    0.00     0.11    0.00    0.01    0.00

 1988  909.60  272.61  185.15  120.16  180.93    0.00  119.97  269.76  465.49  586.90  743.10    0.01    0.62    5.44    0.00    29.43    0.00    3.60    0.00
1
    SWAT Nov 14  VER 2023/Rev 692                                                   

    General Input/Output section (file.cio):                                        
    5/19/2025 12:00:00 AM ARCGIS-SWAT interface AV                                  
                                                                                    
Annual Summary for Watershed in year    9 of simulation

UNIT                                    PERCO    TILE                           WATER     SED     NO3     NO3     NO3     NO3        N       P       P
TIME     PREC    SURQ    LATQ     GWQ    LATE       Q     SW       ET     PET   YIELD   YIELD    SURQ    LATQ    PERC    CROP  ORGANIC SOLUBLE ORGANIC TILENO3
         (mm)    (mm)    (mm)    (mm)    (mm)    (mm)    (mm)    (mm)    (mm)    (mm)   (t/ha)  ------------------(kg nutrient/ha)-------------------- (kg/ha)
    1  251.30  108.59   57.43    9.95   67.99    0.00  120.01   16.43   16.43  176.45  348.88    0.00    0.23    2.19    0.00    28.55    0.00    3.49    0.00
    2  280.20  141.18   55.96   36.35   63.19    0.00  120.00   21.10   21.10  234.56  413.90    0.00    0.15    1.49    0.00     0.70    0.00    0.09    0.00
    3  232.70   82.50   54.62   54.84   63.62    0.00  120.01   30.43   30.51  193.45  188.99    0.00    0.11    1.14    0.00     0.29    0.00    0.04    0.00
    4   60.00    7.95   12.98   50.13    7.04    0.00  116.15   38.93   43.02   73.13   16.10    0.00    0.02    0.11    0.00     0.03    0.00    0.00    0.00
    5   16.70    0.28    1.07   26.02    0.00    0.00  105.44   26.05   43.32   29.15    0.91    0.00    0.00    0.00    0.00     0.00    0.00    0.00    0.00
    6    9.30    0.00    0.32    2.81    0.00    0.00   92.95   21.59   55.18    4.53    0.00    0.00    0.00    0.00    0.00     0.00    0.00    0.00    0.00
    7    4.60    0.00    0.00    0.56    0.00    0.00   82.98   14.57   71.11    1.68    0.00    0.00    0.00    0.00    0.00     0.00    0.00    0.00    0.00
    8   10.90    0.00    0.23    0.04    0.00    0.00   76.65   17.00   50.84    1.12    0.00    0.00    0.00    0.00    0.00     0.00    0.00    0.00    0.00
    9   19.00    0.05    1.51    0.00    0.00    0.00   79.09   14.80   39.79    2.17    0.16    0.00    0.00    0.00    0.00     0.00    0.00    0.00    0.00
   10   71.10    4.89   10.71    0.00    0.34    0.00  110.20   23.68   28.25   16.05   12.74    0.00    0.01    0.01    0.00     0.01    0.00    0.00    0.00
   11   61.40   13.31   11.83    0.44    6.89    0.00  119.36   19.99   21.16   25.94   39.78    0.00    0.04    0.21    0.00     0.04    0.00    0.00    0.00
   12   38.40    5.04    8.64    0.89    5.72    0.00  117.46   21.53   28.40   14.89   17.81    0.00    0.03    0.19    0.00     0.01    0.00    0.00    0.00

 1989 1055.60  363.80  215.29  182.03  214.79    0.00  117.46  266.09  449.13  773.11 1039.27    0.01    0.59    5.34    0.00    29.63    0.00    3.63    0.00
1
    SWAT Nov 14  VER 2023/Rev 692                                                   

    General Input/Output section (file.cio):                                        
    5/19/2025 12:00:00 AM ARCGIS-SWAT interface AV                                  
                                                                                    
Annual Summary for Watershed in year   10 of simulation

UNIT                                    PERCO    TILE                           WATER     SED     NO3     NO3     NO3     NO3        N       P       P
TIME     PREC    SURQ    LATQ     GWQ    LATE       Q     SW       ET     PET   YIELD   YIELD    SURQ    LATQ    PERC    CROP  ORGANIC SOLUBLE ORGANIC TILENO3
         (mm)    (mm)    (mm)    (mm)    (mm)    (mm)    (mm)    (mm)    (mm)    (mm)   (t/ha)  ------------------(kg nutrient/ha)-------------------- (kg/ha)
    1  138.70   31.16   39.83    2.40   47.19    0.00  120.00   16.32   16.37   73.74   68.14    0.00    0.18    1.58    0.00    19.33    0.00    2.36    0.00
    2   73.20   19.13   17.79   11.28   18.76    0.00  120.00   17.53   19.27   48.69   62.99    0.00    0.06    0.57    0.00     4.74    0.00    0.58    0.00
    3   67.90   13.68   14.61   19.43   11.43    0.00  116.39   33.30   37.94   48.61   36.81    0.00    0.05    0.34    0.00     1.54    0.00    0.19    0.00
    4   49.80   10.02    7.79   11.71    4.82    0.00  108.52   35.34   45.59   30.30   39.32    0.00    0.02    0.15    0.00     1.00    0.00    0.12    0.00
    5   27.00    1.29    2.27    1.63    0.00    0.00  103.09   28.79   52.17    5.89    5.25    0.00    0.00    0.00    0.00     0.09    0.00    0.01    0.00
    6   21.50    0.55    1.62    0.46    0.00    0.00  100.49   21.89   41.54    3.17    1.98    0.00    0.00    0.00    0.00     0.03    0.00    0.00    0.00
    7    8.10    0.00    0.12    0.03    0.00    0.00   86.35   22.24   61.41    0.57    0.00    0.00    0.00    0.00    0.00     0.00    0.00    0.00    0.00
    8   12.10    0.04    0.63    0.00    0.00    0.00   82.24   15.49   45.53    0.99    0.13    0.00    0.00    0.00    0.00     0.00    0.00    0.00    0.00
    9   19.60    0.00    1.42    0.00    0.00    0.00   82.24   18.17   38.49    1.65    0.01    0.00    0.00    0.00    0.00     0.00    0.00    0.00    0.00
   10   58.40    3.85    8.03    0.00    0.12    0.00  107.42   20.75   29.77   12.05    9.77    0.00    0.01    0.00    0.00     0.21    0.00    0.03    0.00
   11    2.40    0.00    0.43    0.00    0.00    0.00  108.73    0.87    1.25    0.45    0.00    0.00    0.00    0.00    0.00     0.00    0.00    0.00    0.00

 1990  478.70   79.72   94.54   46.94   82.33    0.00  108.73  230.69  389.31  226.10  224.40    0.01    0.32    2.65    0.00    26.95    0.00    3.29    0.00
1
    SWAT Nov 14  VER 2023/Rev 692                                                   

    General Input/Output section (file.cio):                                        
    5/19/2025 12:00:00 AM ARCGIS-SWAT interface AV                                  
                                                                                    
    FINAL VALUES

1
    SWAT Nov 14  VER 2023/Rev 692                                                   

    General Input/Output section (file.cio):                                        
    5/19/2025 12:00:00 AM ARCGIS-SWAT interface AV                                  
                                                                                    
                                            Average Plant Values (kg/ha)

  HRU       1 SUB   1 PJNL  Yld =     0.0 BIOM =      0.4
  HRU       2 SUB   1 PJNL  Yld =     0.0 BIOM =      0.4
  HRU       3 SUB   1 WETN  Yld =     0.0 BIOM =      0.0
  HRU       4 SUB   1 BARR  Yld =     0.0 BIOM =      0.0
  HRU       5 SUB   1 BARR  Yld =     0.0 BIOM =      0.0
  HRU       6 SUB   2 WETN  Yld =     0.0 BIOM =      0.0
  HRU       7 SUB   2 PJNL  Yld =     0.0 BIOM =      0.4
  HRU       8 SUB   2 PJNL  Yld =     0.0 BIOM =      0.4
  HRU       9 SUB   2 BARR  Yld =     0.0 BIOM =      0.0
  HRU      10 SUB   2 BARR  Yld =     0.0 BIOM =      0.0
  HRU      11 SUB   3 PJNL  Yld =     0.0 BIOM =      0.4
  HRU      12 SUB   3 PJNL  Yld =     0.0 BIOM =      0.4
  HRU      13 SUB   3 BARR  Yld =     0.0 BIOM =      0.0
  HRU      14 SUB   3 BARR  Yld =     0.0 BIOM =      0.0
  HRU      15 SUB   3 WETN  Yld =     0.0 BIOM =      0.0
  HRU      16 SUB   3 ES10  Yld =     0.0 BIOM =      0.0
  HRU      17 SUB   3 ES9   Yld =     0.0 BIOM =      0.0
  HRU      18 SUB   3 ES9   Yld =     0.0 BIOM =      0.0
  HRU      19 SUB   3 ES11  Yld =     0.0 BIOM =      0.0
  HRU      20 SUB   3 ES12  Yld =     0.0 BIOM =      0.0
  HRU      21 SUB   3 ES13  Yld =     0.0 BIOM =      0.0

    HRU STATISTICS

                AVE ANNUAL VALUES

   HRU  SUB  SOIL       AREAkm2    CN     AWCmm   USLE_LS  IRRmm  AUTONkh AUTOPkh  MIXEF PRECmm SURQGENmm   GWQmm    ETmm   SEDth  NO3kgh  ORGNkgh BIOMth   YLDth  SURQmm
      1   1   I-Bh-Tv-   .138E+01   91.00  120.00    7.86    0.00    0.00    0.00    0.21 1015.17  339.99  366.92  256.88 1186.91    1.05   50.08    0.00    0.00  339.99
      2   1   I-Bh-Tv-   .336E-01   91.00  120.00    0.07    0.00    0.00    0.00    0.21 1015.17  341.51  347.20  262.33    1.74    0.02   17.13    0.00    0.00  341.50
      3   1   I-Bh-Tv-   .717E-01   91.00  120.00    0.07    0.00    0.00    0.00    0.21 1015.17  341.75  378.54  259.98    2.76    0.01   22.82    0.00    0.00  341.75
      4   1   I-Bh-Tv-   .230E+00   91.00  120.00    9.50    0.00    0.00    0.00    0.21 1015.17  340.28  344.24  253.11 1182.14    1.15   50.08    0.00    0.00  340.28
      5   1   I-Bh-Tv-   .250E-02   91.00  120.00    0.07    0.00    0.00    0.00    0.21 1015.17  341.82  322.14  259.38    1.31    0.02   13.94    0.00    0.00  341.80
      6   2   I-Bh-Tv-   .225E+00   91.00  120.00    0.07    0.00    0.00    0.00    0.21 1015.17  341.73  378.15  260.40    3.16    0.01   24.56    0.00    0.00  341.73
      7   2   I-Bh-Tv-   .909E+00   91.00  120.00    4.45    0.00    0.00    0.00    0.21 1015.17  340.40  361.77  258.89  643.10    0.81   49.65    0.00    0.00  340.40
      8   2   I-Bh-Tv-   .272E-01   91.00  120.00    0.07    0.00    0.00    0.00    0.21 1015.17  341.49  346.70  262.78    1.70    0.02   16.83    0.00    0.00  341.48
      9   2   I-Bh-Tv-   .106E+01   91.00  120.00    6.50    0.00    0.00    0.00    0.21 1015.17  340.59  340.02  254.79  957.11    0.97   49.98    0.00    0.00  340.59
     10   2   I-Bh-Tv-   .688E-02   91.00  120.00    0.07    0.00    0.00    0.00    0.21 1015.17  341.80  321.56  259.79    1.48    0.02   15.25    0.00    0.00  341.78
     11   3   I-Bh-Tv-   .128E+01   91.00  120.00    7.36    0.00    0.00    0.00    0.21 1015.17  337.94  357.50  269.33 1091.83    1.02   50.04    0.00    0.00  337.94
     12   3   I-Bh-Tv-   .198E-01   91.00  120.00    0.07    0.00    0.00    0.00    0.21 1015.17  340.08  337.55  274.79    1.63    0.01   16.36    0.00    0.00  340.07
     13   3   I-Bh-Tv-   .426E+00   91.00  120.00    8.04    0.00    0.00    0.00    0.21 1015.17  340.41  341.82  254.24 1071.81    1.07   50.04    0.00    0.00  340.41
     14   3   I-Bh-Tv-   .297E-02   91.00  120.00    0.07    0.00    0.00    0.00    0.21 1015.17  341.79  321.40  259.91    1.34    0.02   14.15    0.00    0.00  341.78
     15   3   I-Bh-Tv-   .256E-01   91.00  120.00    0.07    0.00    0.00    0.00    0.21 1015.17  341.73  378.04  260.52    2.44    0.02   21.23    0.00    0.00  341.73
     16   3   I-Bh-Tv-   .337E-01   91.00  120.00    6.34    0.00    0.00    0.00    0.21 1015.17  340.60  396.13  254.97  629.29    0.96   49.62    0.00    0.00  340.60
     17   3   I-Bh-Tv-   .156E-01   91.00  120.00    6.52    0.00    0.00    0.00    0.21 1015.17  340.58  396.36  254.90  589.99    0.97   49.54    0.00    0.00  340.58
     18   3   I-Bh-Tv-   .313E-03   91.00  120.00    0.07    0.00    0.00    0.00    0.21 1015.17  341.79  378.52  259.91    1.00    0.02   11.27    0.00    0.00  341.78
     19   3   I-Bh-Tv-   .183E-01   91.00  120.00   10.83    0.00    0.00    0.00    0.21 1015.17  340.10  401.20  253.06  999.51    1.22   50.00    0.00    0.00  340.10
     20   3   I-Bh-Tv-   .688E-02   91.00  120.00   14.52    0.00    0.00    0.00    0.21 1015.17  339.68  404.75  251.56 1191.56    1.39   50.08    0.00    0.00  339.68
     21   3   I-Bh-Tv-   .187E-02   91.00  120.00   15.10    0.00    0.00    0.00    0.21 1015.17  339.61  405.29  251.33 1060.76    1.42   50.03    0.00    0.00  339.61



                AVE MONTHLY BASIN VALUES
                   SNOW                      WATER               SED
  MON     RAIN     FALL   SURF Q    LAT Q    YIELD       ET    YIELD      PET
          (MM)     (MM)     (MM)     (MM)     (MM)     (MM)   (T/HA)     (MM)
    1   207.81     0.00    79.26    51.23   145.16    15.41   218.22    15.41
    2   246.76     0.00   124.73    47.84   207.50    20.70   363.52    20.99
    3   174.82     0.00    63.47    38.90   150.91    32.76   159.21    34.54
    4    72.33     0.00    16.02    15.02    71.03    33.78    51.05    39.06
    5    23.22     0.00     1.10     2.26    22.67    30.22     3.05    52.90
    6    12.25     0.00     0.07     0.58     4.00    21.64     0.24    54.07
    7     8.30     0.01     0.00     0.16     1.49    17.27     0.00    58.06
    8    13.91     0.00     0.39     0.75     1.84    16.20     1.36    50.94
    9    22.79     0.00     0.35     1.88     2.71    17.57     0.96    41.01
   10    52.63     0.00     5.26     6.89    12.50    19.75    16.18    29.49
   11    81.42     0.00    19.56    15.87    35.88    18.39    57.73    20.14
   12   139.47     0.00    47.41    33.94    84.02    16.13   115.86    17.19

     AVE ANNUAL BASIN STRESS DAYS
               WATER STRESS DAYS =     2.22
               TEMPERATURE STRESS DAYS =   146.15
               NITROGEN STRESS DAYS =     0.00
               PHOSPHORUS STRESS DAYS =     0.00
               AERATION STRESS DAYS =     0.00
1
    SWAT Nov 14  VER 2023/Rev 692                                                   

    General Input/Output section (file.cio):                                        
    5/19/2025 12:00:00 AM ARCGIS-SWAT interface AV                                  
                                                                                    
         AVE ANNUAL BASIN VALUES

              PRECIP =   1015.2 MM
              SNOW FALL =    0.01 MM
              SNOW MELT =     0.01 MM
              SUBLIMATION =     0.00 MM
              SURFACE RUNOFF Q =   339.88 MM
              LATERAL SOIL Q =  205.50 MM
              TILE Q =     0.00 MM
              GROUNDWATER (SHAL AQ) Q =   151.47 MM
              GROUNDWATER (DEEP AQ) Q =    10.24 MM
              REVAP (SHAL AQ => SOIL/PLANTS) =   46.21 MM
              DEEP AQ RECHARGE =    10.29 MM
              TOTAL AQ RECHARGE =  205.70 MM
              TOTAL WATER YLD =   707.08 MM
              PERCOLATION OUT OF SOIL =  205.72 MM
              ET =    259.5 MM
              PET =    441.1MM
              TRANSMISSION LOSSES =     0.00 MM
              SEPTIC INFLOW =     0.00 MM
              TOTAL SEDIMENT LOADING =    938.97 T/HA
              TILE FROM IMPOUNDED WATER =     0.000 (MM)
              EVAPORATION FROM IMPOUNDED WATER =     0.000 (MM)
              SEEPAGE INTO SOIL FROM IMPOUNDED WATER =    0.000 (MM)
              OVERFLOW FROM IMPOUNDED WATER =    0.000 (MM)
1
    SWAT Nov 14  VER 2023/Rev 692                                                   

    General Input/Output section (file.cio):                                        
    5/19/2025 12:00:00 AM ARCGIS-SWAT interface AV                                  
                                                                                    
              AVE ANNUAL BASIN VALUES


              NUTRIENTS
                   ORGANIC N =    47.978 (KG/HA)
                   ORGANIC P =     5.875 (KG/HA)
                   NO3 YIELD (SQ) =     0.016 (KG/HA)
                   NO3 YIELD (LAT) =    0.907 (KG/HA)
                   NO3 YIELD (TILE) =      0.000 (KG/HA)
                   SOLP YIELD (TILE) =    0.000(KG/HA)
                   SOLP YIELD (SURF INLET RISER) =    0.000 (KG/HA)
                   SOL P YIELD =    0.006 (KG/HA)
                   NO3 LEACHED =     7.729 (KG/HA)
                   P LEACHED =     0.086 (KG/HA)
                   N UPTAKE =     0.000 (KG/HA)
                   P UPTAKE =    0.000 (KG/HA)
                   NO3 YIELD (GWQ) =     0.060 (KG/HA)
                   ACTIVE TO SOLUTION P FLOW =         2.018 (KG/HA)
                   ACTIVE TO STABLE P FLOW =         4.320 (KG/HA)
                   N FERTILIZER APPLIED =     0.000 (KG/HA)
                   P FERTILIZER APPLIED =     0.000 (KG/HA)
                   N FIXATION =     0.000 (KG/HA)
                   DENITRIFICATION =     0.000 (KG/HA)
                   HUMUS MIN ON ACTIVE ORG N =     7.911 (KG/HA)
                   ACTIVE TO STABLE ORG N =    -4.136 (KG/HA)
                   HUMUS MIN ON ACTIVE ORG P =    1.355 (KG/HA)
                   MIN FROM FRESH ORG N =    0.000 (KG/HA)
                   MIN FROM FRESH ORG P =    0.000 (KG/HA)
                   NO3 IN RAINFALL =       0.000 (KG/HA)
                   INITIAL NO3 IN SOIL =      35.560 (KG/HA)
                   FINAL NO3 IN SOIL =        10.389 (KG/HA)
                   INITIAL ORG N IN SOIL =   12599.999 (KG/HA)
                   FINAL ORG N IN SOIL =     12066.988 (KG/HA)
                   INITIAL MIN P IN SOIL =    1789.938 (KG/HA)
                   FINAL MIN P IN SOIL =      1756.050 (KG/HA)
                   INITIAL ORG P IN SOIL =    1543.500 (KG/HA)
                   FINAL ORG P IN SOIL =    1474.565 (KG/HA)
                   NO3 IN FERT =     0.000 (KG/HA)
                   AMMONIA IN FERT =     0.000 (KG/HA)
                   ORG N IN FERT =     0.000 (KG/HA)
                   MINERAL P IN FERT =     0.000 (KG/HA)
                   ORG P IN FERT =     0.000 (KG/HA)
                   N REMOVED IN YIELD =     0.000 (KG/HA)
                   P REMOVED IN YIELD =     0.000 (KG/HA)
                   AMMONIA VOLATILIZATION =     0.000 (KG/HA)
                   AMMONIA NITRIFICATION =      0.000 (KG/HA)
                   NO3 EVAP-LAYER 2 TO 1 =    1.069

                   DIE-GRO P Q =           0.0 (No/M2)
                   DIE-GRO LP Q =           0.0 (No/M2)
                   DIE-GRO P SED =          0.0 (No/M2)
                   DIE-GRO LP SED =          0.0 (No/M2)
                   BACT P RUNOFF =          0.0 (No/M2)
                   BACT LP RUNOFF =          0.0 (No/M2)
                   BACT P SEDIMENT =          0.0 (No/M2)
                   BACT LP SEDIMENT =          0.0 (No/M2)
                   BACT P INCORP =          0.0 (No/M2)
                   BACT LP INCORP =          0.0 (No/M2)

                   NITRATE SEPTIC =         0.00 (kg/ha)
                   AMMONIA SEPTIC =         0.00 (kg/ha)
                   ORG N SEPTIC =         0.00 (kg/ha)
                   FRESH ORGN SEPTIC =         0.00 (kg/ha)
                   ORG P SEPTIC =         0.00 (kg/ha)
                   FRESH ORGP SEPTIC =         0.00 (kg/ha)
                   SOL P SEPTIC =         0.00 (kg/ha)
                   BOD SEPTIC =         0.00 (kg/ha)
