1
    SWAT Nov 14  VER 2023/Rev 692                                                                        0/ 0/   0      0: 0: 0

    General Input/Output section (file.cio):                                        
    5/19/2025 12:00:00 AM ARCGIS-SWAT interface AV                                  
                                                                                    
         Number of years in run:   10
         Area of watershed:        5.790 km2
1
    SWAT Nov 14  VER 2023/Rev 692                                                   

    General Input/Output section (file.cio):                                        
    5/19/2025 12:00:00 AM ARCGIS-SWAT interface AV                                  
                                                                                    
Annual Summary for Watershed in year    1 of simulation

UNIT                                    PERCO    TILE                           WATER     SED     NO3     NO3     NO3     NO3        N       P       P
TIME     PREC    SURQ    LATQ     GWQ    LATE       Q     SW       ET     PET   YIELD   YIELD    SURQ    LATQ    PERC    CROP  ORGANIC SOLUBLE ORGANIC TILENO3
         (mm)    (mm)    (mm)    (mm)    (mm)    (mm)    (mm)    (mm)    (mm)    (mm)   (t/ha)  ------------------(kg nutrient/ha)-------------------- (kg/ha)
    4    3.10    0.00    0.01    0.00    0.00    0.00   61.84    6.68   19.15    0.01    0.00    0.00    0.00    0.00    0.00     0.00    0.00    0.00    0.00
    5   11.30    0.00    0.20    0.00    0.00    0.00   57.80   15.06   53.31    0.20    0.00    0.00    0.00    0.00    0.00     0.00    0.00    0.00    0.00
    6    8.00    0.00    0.25    0.00    0.00    0.00   52.30   13.32   59.93    0.25    0.00    0.00    0.00    0.00    0.00     0.00    0.00    0.00    0.00
    7    5.20    0.00    0.01    0.00    0.00    0.00   47.26   10.24   60.47    0.01    0.00    0.00    0.00    0.00    0.00     0.00    0.00    0.00    0.00
    8   17.00    0.00    0.63    0.00    0.00    0.00   49.81   13.77   52.45    0.63    0.00    0.00    0.02    0.00    0.00     0.00    0.00    0.00    0.00
    9   23.00    0.00    1.10    0.00    0.00    0.00   54.43   17.27   45.01    1.10    0.01    0.00    0.01    0.00    0.00     0.01    0.00    0.00    0.00
   10   49.40    0.65    3.65    0.00    0.00    0.00   82.29   16.28   30.75    4.30    1.72    0.00    0.03    0.00    0.00     4.17    0.00    0.51    0.00
   11  115.80   17.25   17.46    0.00   22.61    0.00  119.99   18.81   19.43   34.64   52.38    0.01    0.43    3.84    0.00    86.56    0.00   10.60    0.00
   12  187.70   55.67   31.67    0.15   79.68    0.00  120.05   17.93   18.25   87.92  144.04    0.01    0.68   11.29    0.00    86.15    0.01   10.55    0.00

 1981  420.50   73.57   54.97    0.15  102.28    0.00  120.05  129.37  358.76  129.05  198.14    0.02    1.17   15.13    0.00   176.90    0.01   21.67    0.00
1
    SWAT Nov 14  VER 2023/Rev 692                                                   

    General Input/Output section (file.cio):                                        
    5/19/2025 12:00:00 AM ARCGIS-SWAT interface AV                                  
                                                                                    
Annual Summary for Watershed in year    2 of simulation

UNIT                                    PERCO    TILE                           WATER     SED     NO3     NO3     NO3     NO3        N       P       P
TIME     PREC    SURQ    LATQ     GWQ    LATE       Q     SW       ET     PET   YIELD   YIELD    SURQ    LATQ    PERC    CROP  ORGANIC SOLUBLE ORGANIC TILENO3
         (mm)    (mm)    (mm)    (mm)    (mm)    (mm)    (mm)    (mm)    (mm)    (mm)   (t/ha)  ------------------(kg nutrient/ha)-------------------- (kg/ha)
    1  205.90   58.46   39.28    9.58   94.03    0.00  120.07   13.36   13.36  109.70  151.41    0.00    0.51    8.72    0.00    33.51    0.00    4.10    0.00
    2  310.00  129.39   49.88   39.81  110.62    0.00  120.04   22.57   22.57  223.41  443.70    0.00    0.34    5.80    0.00     5.08    0.00    0.62    0.00
    3  142.10   39.65   25.85   63.48   54.14    0.00  118.26   26.11   26.62  135.60  124.12    0.00    0.11    1.82    0.00     0.23    0.00    0.03    0.00
    4   72.50   15.42   11.94   55.07   20.17    0.00  117.27   27.71   32.50   89.62   38.72    0.00    0.04    0.57    0.00     0.09    0.00    0.01    0.00
    5   16.80    0.45    1.04   32.36    0.00    0.00  104.11   28.80   52.67   40.85    1.58    0.00    0.00    0.00    0.00     0.00    0.00    0.00    0.00
    6    7.70    0.00    0.13    3.18    0.00    0.00   92.07   19.63   58.64    8.98    0.00    0.00    0.00    0.00    0.00     0.00    0.00    0.00    0.00
    7    6.70    0.00    0.01    0.37    0.00    0.00   83.10   15.67   61.37    5.05    0.00    0.00    0.00    0.00    0.00     0.00    0.00    0.00    0.00
    8   12.30    0.00    0.23    0.06    0.00    0.00   80.26   14.85   42.24    3.90    0.00    0.00    0.00    0.00    0.00     0.00    0.00    0.00    0.00
    9   21.90    0.37    0.76    0.00    0.00    0.00   83.63   17.10   41.35    3.80    0.83    0.00    0.00    0.00    0.00     0.00    0.00    0.00    0.00
   10   74.00    5.46    6.93    0.00    3.94    0.00  119.99   19.91   24.68   14.49   21.30    0.00    0.01    0.17    0.00     0.03    0.00    0.00    0.00
   11  115.80   24.47   22.71    0.44   51.40    0.00  120.00   17.45   17.52   49.46   89.40    0.00    0.14    2.14    0.00     0.15    0.00    0.02    0.00
   12   77.20   17.00   14.24    8.89   30.35    0.00  119.73   16.44   17.27   42.54   55.54    0.00    0.07    1.12    0.00     0.09    0.00    0.01    0.00

 1982 1062.90  290.66  173.02  213.25  364.66    0.00  119.73  239.61  410.78  727.38  926.59    0.01    1.23   20.35    0.00    39.19    0.01    4.80    0.00
1
    SWAT Nov 14  VER 2023/Rev 692                                                   

    General Input/Output section (file.cio):                                        
    5/19/2025 12:00:00 AM ARCGIS-SWAT interface AV                                  
                                                                                    
Annual Summary for Watershed in year    3 of simulation

UNIT                                    PERCO    TILE                           WATER     SED     NO3     NO3     NO3     NO3        N       P       P
TIME     PREC    SURQ    LATQ     GWQ    LATE       Q     SW       ET     PET   YIELD   YIELD    SURQ    LATQ    PERC    CROP  ORGANIC SOLUBLE ORGANIC TILENO3
         (mm)    (mm)    (mm)    (mm)    (mm)    (mm)    (mm)    (mm)    (mm)    (mm)   (t/ha)  ------------------(kg nutrient/ha)-------------------- (kg/ha)
    1  152.70   45.15   25.91   23.16   62.90    0.00  120.06   17.05   17.05   97.15  125.31    0.00    0.11    1.99    0.00    26.18    0.00    3.21    0.00
    2  196.00  100.06   21.83   30.61   49.73    0.00  120.02   24.03   24.71  156.06  398.45    0.00    0.07    1.28    0.00     4.09    0.00    0.50    0.00
    3  255.90   99.86   35.31   42.55   83.16    0.00  120.09   35.96   36.08  181.91  306.54    0.00    0.09    1.68    0.00     0.54    0.00    0.07    0.00
    4  102.50   21.28   19.94   47.46   35.04    0.00  117.74   32.27   33.15   95.08   74.34    0.00    0.04    0.58    0.00     0.17    0.00    0.02    0.00
    5   19.80    0.20    1.19   28.71    0.00    0.00  105.31   31.38   45.73   36.10    0.73    0.00    0.00    0.00    0.00     0.00    0.00    0.00    0.00
    6   12.30    0.00    0.24    4.29    0.00    0.00   95.43   21.96   49.18    9.56    0.00    0.00    0.00    0.00    0.00     0.00    0.00    0.00    0.00
    7   11.00    0.00    0.12    1.07    0.00    0.00   87.14   19.17   49.81    5.40    0.00    0.00    0.00    0.00    0.00     0.00    0.00    0.00    0.00
    8   12.80    0.00    0.24    0.16    0.00    0.00   82.92   16.76   45.63    3.69    0.00    0.00    0.00    0.00    0.00     0.00    0.00    0.00    0.00
    9   30.90    0.37    1.46    0.00    0.00    0.00   92.64   19.00   38.65    4.28    1.20    0.00    0.00    0.00    0.00     0.00    0.00    0.00    0.00
   10   48.80    3.50    4.06    0.00    0.00    0.00  109.62   24.40   32.97    9.48    8.90    0.00    0.00    0.00    0.00     0.02    0.00    0.00    0.00
   11   56.00   11.13    5.63    0.00    8.86    0.00  119.64   18.85   23.58   18.12   26.87    0.00    0.02    0.30    0.00     0.05    0.00    0.01    0.00
   12  212.00   62.46   37.37    1.72   94.61    0.00  119.98   14.21   14.29  103.19  152.00    0.00    0.18    2.87    0.00     0.32    0.00    0.04    0.00

 1983 1110.70  344.01  153.29  179.72  334.31    0.00  119.98  275.04  410.81  720.02 1094.34    0.01    0.53    8.71    0.00    31.37    0.01    3.84    0.00
1
    SWAT Nov 14  VER 2023/Rev 692                                                   

    General Input/Output section (file.cio):                                        
    5/19/2025 12:00:00 AM ARCGIS-SWAT interface AV                                  
                                                                                    
Annual Summary for Watershed in year    4 of simulation

UNIT                                    PERCO    TILE                           WATER     SED     NO3     NO3     NO3     NO3        N       P       P
TIME     PREC    SURQ    LATQ     GWQ    LATE       Q     SW       ET     PET   YIELD   YIELD    SURQ    LATQ    PERC    CROP  ORGANIC SOLUBLE ORGANIC TILENO3
         (mm)    (mm)    (mm)    (mm)    (mm)    (mm)    (mm)    (mm)    (mm)    (mm)   (t/ha)  ------------------(kg nutrient/ha)-------------------- (kg/ha)
    1  211.40   65.62   38.43   29.66   92.23    0.00  120.06   14.13   14.13  136.80  193.35    0.00    0.12    1.98    0.00    28.17    0.00    3.45    0.00
    2  434.00  209.20   59.41   54.98  142.41    0.00  120.06   21.68   21.68  328.34  481.03    0.00    0.11    1.87    0.00     2.52    0.00    0.31    0.00
    3  258.50   86.10   44.35   82.16   97.80    0.00  120.08   31.92   32.05  220.57  173.07    0.00    0.05    0.83    0.00     0.44    0.00    0.05    0.00
    4   79.60   10.20   16.24   74.96   22.03    0.00  116.91   39.19   42.50  110.72   31.28    0.00    0.02    0.18    0.00     0.06    0.00    0.01    0.00
    5   41.00    2.60    3.18   50.09    1.83    0.00  110.64   40.02   51.10   64.74    6.30    0.00    0.00    0.02    0.00     0.01    0.00    0.00    0.00
    6   23.60    0.02    0.67    8.67    0.00    0.00  100.86   32.68   53.22   16.64    0.04    0.00    0.00    0.00    0.00     0.00    0.00    0.00    0.00
    7    6.90    0.00    0.04    2.87    0.00    0.00   90.91   16.85   54.41    8.94    0.00    0.00    0.00    0.00    0.00     0.00    0.00    0.00    0.00
    8   13.30    0.00    0.46    0.66    0.00    0.00   87.45   16.27   45.54    5.80    0.00    0.00    0.00    0.00    0.00     0.00    0.00    0.00    0.00
    9   15.70    0.02    0.67    0.17    0.00    0.00   87.35   15.08   36.84    4.33    0.02    0.00    0.00    0.00    0.00     0.00    0.00    0.00    0.00
   10   79.10   10.17    7.47    0.04    4.69    0.00  119.45   24.06   30.97   20.41   28.12    0.00    0.02    0.11    0.00     0.04    0.00    0.01    0.00
   11  122.50   36.67   16.79    0.69   49.01    0.00  120.04   14.81   14.92   55.95  119.44    0.00    0.07    1.22    0.00     0.14    0.00    0.02    0.00
   12  185.00   61.82   33.14   17.52   76.87    0.00  120.05   13.42   13.51  115.56  153.13    0.00    0.11    1.64    0.00     0.28    0.00    0.03    0.00

 1984 1470.60  482.41  220.85  322.47  486.87    0.00  120.05  280.12  410.88 1088.81 1185.78    0.01    0.50    7.85    0.00    31.66    0.01    3.88    0.00
1
    SWAT Nov 14  VER 2023/Rev 692                                                   

    General Input/Output section (file.cio):                                        
    5/19/2025 12:00:00 AM ARCGIS-SWAT interface AV                                  
                                                                                    
Annual Summary for Watershed in year    5 of simulation

UNIT                                    PERCO    TILE                           WATER     SED     NO3     NO3     NO3     NO3        N       P       P
TIME     PREC    SURQ    LATQ     GWQ    LATE       Q     SW       ET     PET   YIELD   YIELD    SURQ    LATQ    PERC    CROP  ORGANIC SOLUBLE ORGANIC TILENO3
         (mm)    (mm)    (mm)    (mm)    (mm)    (mm)    (mm)    (mm)    (mm)    (mm)   (t/ha)  ------------------(kg nutrient/ha)-------------------- (kg/ha)
    1  162.30   39.05   32.86   42.21   77.18    0.00  120.08   13.07   13.07  118.23  101.81    0.00    0.08    1.31    0.00    23.03    0.00    2.82    0.00
    2  217.30   78.27   36.84   49.81   85.95    0.00  120.04   16.32   16.32  170.02  220.62    0.00    0.07    1.13    0.00     6.21    0.00    0.76    0.00
    3  192.10   55.86   31.99   63.84   71.98    0.00  120.09   32.09   34.51  158.19  122.81    0.00    0.05    0.77    0.00     0.39    0.00    0.05    0.00
    4   68.20    4.12   15.08   58.73   20.24    0.00  119.07   34.56   34.93   85.74   12.53    0.00    0.02    0.21    0.00     0.05    0.00    0.01    0.00
    5   23.50    0.33    1.39   33.33    0.00    0.00  109.07   32.13   47.58   42.23    0.90    0.00    0.00    0.00    0.00     0.00    0.00    0.00    0.00
    6   15.30    0.00    0.54    6.32    0.00    0.00   99.57   24.33   45.69   12.71    0.00    0.00    0.00    0.00    0.00     0.00    0.00    0.00    0.00
    7    7.50    0.00    0.05    2.43    0.00    0.00   90.81   16.24   44.64    7.31    0.00    0.00    0.00    0.00    0.00     0.00    0.00    0.00    0.00
    8   13.10    0.12    0.38    0.16    0.00    0.00   87.65   15.65   50.56    4.40    0.34    0.00    0.00    0.00    0.00     0.00    0.00    0.00    0.00
    9   28.20    0.07    1.48    0.01    0.00    0.00   93.40   20.77   42.43    4.32    0.19    0.00    0.00    0.00    0.00     0.00    0.00    0.00    0.00
   10   36.60    4.79    1.94    0.00    0.00    0.00  104.66   18.24   34.92    8.80   20.23    0.00    0.00    0.00    0.00     0.02    0.00    0.00    0.00
   11   60.70   15.34    6.19    0.04    3.68    0.00  120.00   20.19   23.75   23.26   43.80    0.00    0.02    0.10    0.00     0.07    0.00    0.01    0.00
   12  162.60   47.47   25.76    0.91   69.32    0.00  120.06   15.86   15.97   75.39   82.67    0.00    0.12    1.92    0.00     0.15    0.00    0.02    0.00

 1985  987.40  245.43  154.50  257.78  328.35    0.00  120.06  259.45  404.37  710.60  605.90    0.01    0.36    5.43    0.00    29.92    0.00    3.66    0.00
1
    SWAT Nov 14  VER 2023/Rev 692                                                   

    General Input/Output section (file.cio):                                        
    5/19/2025 12:00:00 AM ARCGIS-SWAT interface AV                                  
                                                                                    
Annual Summary for Watershed in year    6 of simulation

UNIT                                    PERCO    TILE                           WATER     SED     NO3     NO3     NO3     NO3        N       P       P
TIME     PREC    SURQ    LATQ     GWQ    LATE       Q     SW       ET     PET   YIELD   YIELD    SURQ    LATQ    PERC    CROP  ORGANIC SOLUBLE ORGANIC TILENO3
         (mm)    (mm)    (mm)    (mm)    (mm)    (mm)    (mm)    (mm)    (mm)    (mm)   (t/ha)  ------------------(kg nutrient/ha)-------------------- (kg/ha)
    1  296.10  109.43   49.25   22.92  120.81    0.00  120.05   14.60   14.61  184.37  287.80    0.00    0.15    2.45    0.00    29.02    0.00    3.55    0.00
    2  312.30  139.84   45.55   56.50  106.66    0.00  120.09   20.07   20.07  246.24  428.56    0.00    0.08    1.35    0.00     0.90    0.00    0.11    0.00
    3  182.80   39.43   39.43   79.48   80.59    0.00  116.64   31.06   31.89  166.02   79.21    0.00    0.05    0.75    0.00     0.18    0.00    0.02    0.00
    4  117.50   26.91   17.15   71.11   36.46    0.00  120.09   33.17   33.69  122.90   89.71    0.00    0.02    0.33    0.00     0.08    0.00    0.01    0.00
    5   35.30    1.07    5.99   50.86    5.08    0.00  110.11   35.74   55.56   66.57    1.65    0.00    0.01    0.05    0.00     0.03    0.00    0.00    0.00
    6   10.10    0.00    0.51    7.75    0.00    0.00   94.83   25.27   61.90   15.13    0.00    0.00    0.00    0.00    0.00     0.00    0.00    0.00    0.00
    7   16.80    0.00    0.41    3.76    0.00    0.00   89.53   21.64   54.52    9.91    0.00    0.00    0.00    0.00    0.00     0.00    0.00    0.00    0.00
    8   23.10    2.63    0.98    0.17    0.00    0.00   87.51   21.50   56.91    8.25    8.91    0.00    0.00    0.00    0.00     0.01    0.00    0.00    0.00
    9   25.00    0.37    1.25    0.01    0.00    0.00   91.41   19.45   38.41    4.96    0.73    0.00    0.00    0.00    0.00     0.00    0.00    0.00    0.00
   10   37.10    2.15    2.07    0.00    0.00    0.00  103.83   20.17   28.90    6.82   10.33    0.00    0.00    0.00    0.00     0.01    0.00    0.00    0.00
   11   61.50   11.88    7.81    0.19    7.69    0.00  118.14   20.04   21.61   21.85   23.36    0.00    0.03    0.19    0.00     0.04    0.00    0.00    0.00
   12  148.70   44.08   21.39    1.01   59.53    0.00  120.05   17.04   17.29   68.06  124.70    0.00    0.09    1.56    0.00     0.15    0.00    0.02    0.00

 1986 1266.30  377.79  191.78  293.75  416.83    0.00  120.05  279.74  435.36  921.08 1054.98    0.01    0.43    6.68    0.00    30.42    0.01    3.73    0.00
1
    SWAT Nov 14  VER 2023/Rev 692                                                   

    General Input/Output section (file.cio):                                        
    5/19/2025 12:00:00 AM ARCGIS-SWAT interface AV                                  
                                                                                    
Annual Summary for Watershed in year    7 of simulation

UNIT                                    PERCO    TILE                           WATER     SED     NO3     NO3     NO3     NO3        N       P       P
TIME     PREC    SURQ    LATQ     GWQ    LATE       Q     SW       ET     PET   YIELD   YIELD    SURQ    LATQ    PERC    CROP  ORGANIC SOLUBLE ORGANIC TILENO3
         (mm)    (mm)    (mm)    (mm)    (mm)    (mm)    (mm)    (mm)    (mm)    (mm)   (t/ha)  ------------------(kg nutrient/ha)-------------------- (kg/ha)
    1  265.30   97.10   44.69   23.27  105.95    0.00  120.09   16.98   16.98  167.53  284.89    0.00    0.13    2.14    0.00    28.71    0.00    3.51    0.00
    2  224.90   95.90   34.79   51.67   77.03    0.00  120.07   18.79   18.79  187.15  200.78    0.00    0.07    1.09    0.00     0.69    0.00    0.09    0.00
    3   92.20   17.82   18.48   61.07   31.61    0.00  110.99   37.08   43.80  103.75   51.37    0.00    0.03    0.39    0.00     0.08    0.00    0.01    0.00
    4   34.80    7.31    1.72   40.87    0.04    0.00  107.54   29.31   40.04   55.95   39.25    0.00    0.00    0.00    0.00     0.03    0.00    0.00    0.00
    5   14.40    0.01    0.49    5.59    0.00    0.00   95.13   26.31   63.85   11.48    0.05    0.00    0.00    0.00    0.00     0.00    0.00    0.00    0.00
    6    8.30    0.00    0.04    1.09    0.00    0.00   87.03   16.35   57.09    5.35    0.00    0.00    0.00    0.00    0.00     0.00    0.00    0.00    0.00
    7   10.30    0.00    0.20    0.14    0.00    0.00   80.05   17.10   54.66    3.74    0.00    0.00    0.00    0.00    0.00     0.00    0.00    0.00    0.00
    8   14.90    0.00    0.53    0.00    0.00    0.00   76.81   17.57   64.51    3.13    0.00    0.00    0.00    0.00    0.00     0.00    0.00    0.00    0.00
    9   23.50    0.07    1.04    0.00    0.00    0.00   80.66   18.38   49.29    3.03    0.21    0.00    0.00    0.00    0.00     0.00    0.00    0.00    0.00
   10   34.40    2.22    2.36    0.00    0.00    0.00   91.71   18.89   28.08    6.08    4.52    0.00    0.00    0.00    0.00     0.01    0.00    0.00    0.00
   11   82.70    7.81   10.50    0.03   14.75    0.00  120.00   19.26   20.10   19.43   21.29    0.00    0.04    0.48    0.00     0.03    0.00    0.00    0.00
   12  113.70   18.23   25.14    1.48   56.70    0.00  119.95   14.33   14.49   46.28   43.76    0.00    0.12    1.70    0.00     0.06    0.00    0.01    0.00

 1987  919.40  246.46  139.98  185.21  286.07    0.00  119.95  250.35  471.66  612.91  646.11    0.01    0.39    5.80    0.00    29.60    0.00    3.62    0.00
1
    SWAT Nov 14  VER 2023/Rev 692                                                   

    General Input/Output section (file.cio):                                        
    5/19/2025 12:00:00 AM ARCGIS-SWAT interface AV                                  
                                                                                    
Annual Summary for Watershed in year    8 of simulation

UNIT                                    PERCO    TILE                           WATER     SED     NO3     NO3     NO3     NO3        N       P       P
TIME     PREC    SURQ    LATQ     GWQ    LATE       Q     SW       ET     PET   YIELD   YIELD    SURQ    LATQ    PERC    CROP  ORGANIC SOLUBLE ORGANIC TILENO3
         (mm)    (mm)    (mm)    (mm)    (mm)    (mm)    (mm)    (mm)    (mm)    (mm)   (t/ha)  ------------------(kg nutrient/ha)-------------------- (kg/ha)
    1  186.60   47.55   33.60   12.60   85.59    0.00  120.03   16.70   16.70   96.11  111.73    0.00    0.12    2.07    0.00    23.71    0.00    2.90    0.00
    2  190.60   80.80   29.77   43.35   58.38    0.00  120.00   25.58   25.90  157.87  278.24    0.00    0.07    1.05    0.00     5.28    0.00    0.65    0.00
    3  149.20   41.97   20.36   49.54   48.53    0.00  120.02   36.23   37.46  116.83  110.67    0.00    0.04    0.78    0.00     0.16    0.00    0.02    0.00
    4   87.10   14.01   14.63   42.43   24.46    0.00  118.36   37.89   40.02   76.77   33.84    0.00    0.03    0.37    0.00     0.06    0.00    0.01    0.00
    5   26.40    0.35    1.73   17.30    0.00    0.00  106.00   37.05   63.69   24.75    1.01    0.00    0.00    0.00    0.00     0.00    0.00    0.00    0.00
    6    6.40    0.00    0.27    2.38    0.00    0.00   93.32   19.02   58.38    7.04    0.00    0.00    0.00    0.00    0.00     0.00    0.00    0.00    0.00
    7    5.90    0.00    0.06    0.36    0.00    0.00   81.47   17.68   68.18    4.05    0.00    0.00    0.00    0.00    0.00     0.00    0.00    0.00    0.00
    8    9.60    0.00    0.29    0.02    0.00    0.00   78.13   12.62   55.15    3.12    0.00    0.00    0.00    0.00    0.00     0.00    0.00    0.00    0.00
    9   21.10    0.07    0.93    0.00    0.00    0.00   81.39   16.78   39.87    3.10    0.23    0.00    0.00    0.00    0.00     0.00    0.00    0.00    0.00
   10   37.40    1.73    2.58    0.00    0.00    0.00   97.02   17.43   25.66    5.95    5.19    0.00    0.00    0.00    0.00     0.01    0.00    0.00    0.00
   11   59.40    4.25    6.43    0.01    5.61    0.00  120.00   18.67   19.26   11.88    7.54    0.00    0.02    0.18    0.00     0.01    0.00    0.00    0.00
   12  129.90   26.50   24.87    0.78   62.21    0.00  119.99   14.32   15.22   53.28   56.82    0.00    0.12    1.93    0.00     0.09    0.00    0.01    0.00

 1988  909.60  217.23  135.51  168.76  284.78    0.00  119.99  269.96  465.49  560.73  605.27    0.01    0.40    6.38    0.00    29.31    0.00    3.59    0.00
1
    SWAT Nov 14  VER 2023/Rev 692                                                   

    General Input/Output section (file.cio):                                        
    5/19/2025 12:00:00 AM ARCGIS-SWAT interface AV                                  
                                                                                    
Annual Summary for Watershed in year    9 of simulation

UNIT                                    PERCO    TILE                           WATER     SED     NO3     NO3     NO3     NO3        N       P       P
TIME     PREC    SURQ    LATQ     GWQ    LATE       Q     SW       ET     PET   YIELD   YIELD    SURQ    LATQ    PERC    CROP  ORGANIC SOLUBLE ORGANIC TILENO3
         (mm)    (mm)    (mm)    (mm)    (mm)    (mm)    (mm)    (mm)    (mm)    (mm)   (t/ha)  ------------------(kg nutrient/ha)-------------------- (kg/ha)
    1  251.30   89.64   42.12   15.27  101.74    0.00  120.05   16.43   16.43  149.35  290.67    0.00    0.14    2.36    0.00    28.28    0.00    3.46    0.00
    2  280.20  120.33   42.90   49.04   97.09    0.00  120.01   21.10   21.10  216.32  353.98    0.00    0.09    1.47    0.00     0.88    0.00    0.11    0.00
    3  232.70   63.46   40.85   71.83   96.65    0.00  120.06   30.41   30.51  182.50  146.20    0.00    0.06    1.04    0.00     0.25    0.00    0.03    0.00
    4   60.00    5.27   11.88   67.37   11.69    0.00  117.21   38.75   43.02   92.17   10.51    0.00    0.01    0.11    0.00     0.02    0.00    0.00    0.00
    5   16.70    0.09    0.79   40.06    0.00    0.00  107.11   26.08   43.32   48.32    0.26    0.00    0.00    0.00    0.00     0.00    0.00    0.00    0.00
    6    9.30    0.00    0.23    5.78    0.00    0.00   94.78   21.51   55.18   12.03    0.00    0.00    0.00    0.00    0.00     0.00    0.00    0.00    0.00
    7    4.60    0.00    0.00    1.29    0.00    0.00   85.09   14.28   71.11    6.27    0.00    0.00    0.00    0.00    0.00     0.00    0.00    0.00    0.00
    8   10.90    0.00    0.13    0.06    0.00    0.00   79.03   16.83   50.84    4.05    0.00    0.00    0.00    0.00    0.00     0.00    0.00    0.00    0.00
    9   19.00    0.00    0.73    0.00    0.00    0.00   82.32   14.73   39.79    3.59    0.00    0.00    0.00    0.00    0.00     0.00    0.00    0.00    0.00
   10   71.10    3.06    6.37    0.00    0.59    0.00  118.00   24.65   28.25   11.66    8.21    0.00    0.01    0.01    0.00     0.01    0.00    0.00    0.00
   11   61.40   10.14    9.79    0.52   19.50    0.00  120.00   19.92   21.16   22.25   29.92    0.00    0.04    0.50    0.00     0.03    0.00    0.00    0.00
   12   38.40    3.04    6.43    0.90   10.56    0.00  117.55   21.29   28.40   12.10   10.96    0.00    0.02    0.29    0.00     0.01    0.00    0.00    0.00

 1989 1055.60  295.03  162.22  252.09  337.82    0.00  117.55  265.99  449.13  760.60  850.71    0.01    0.37    5.78    0.00    29.49    0.00    3.61    0.00
1
    SWAT Nov 14  VER 2023/Rev 692                                                   

    General Input/Output section (file.cio):                                        
    5/19/2025 12:00:00 AM ARCGIS-SWAT interface AV                                  
                                                                                    
Annual Summary for Watershed in year   10 of simulation

UNIT                                    PERCO    TILE                           WATER     SED     NO3     NO3     NO3     NO3        N       P       P
TIME     PREC    SURQ    LATQ     GWQ    LATE       Q     SW       ET     PET   YIELD   YIELD    SURQ    LATQ    PERC    CROP  ORGANIC SOLUBLE ORGANIC TILENO3
         (mm)    (mm)    (mm)    (mm)    (mm)    (mm)    (mm)    (mm)    (mm)    (mm)   (t/ha)  ------------------(kg nutrient/ha)-------------------- (kg/ha)
    1  138.70   21.77   27.37    4.43   68.38    0.00  120.03   16.32   16.37   55.46   46.10    0.00    0.11    1.79    0.00    15.33    0.00    1.87    0.00
    2   73.20   14.21   13.53   21.16   28.54    0.00  120.02   17.41   19.27   51.32   47.10    0.00    0.04    0.66    0.00     5.49    0.00    0.67    0.00
    3   67.90   10.03   11.74   28.44   18.35    0.00  116.99   32.96   37.94   53.60   26.43    0.00    0.03    0.41    0.00     2.05    0.00    0.25    0.00
    4   49.80    7.58    6.03   16.07    9.55    0.00  108.83   35.09   45.59   32.93   31.05    0.00    0.01    0.22    0.00     1.60    0.00    0.20    0.00
    5   27.00    0.60    1.37    2.72    0.00    0.00  104.99   28.83   52.17    7.72    2.35    0.00    0.00    0.00    0.00     0.09    0.00    0.01    0.00
    6   21.50    0.24    0.88    0.64    0.00    0.00  103.10   22.18   41.54    4.19    0.87    0.00    0.00    0.00    0.00     0.03    0.00    0.00    0.00
    7    8.10    0.00    0.22    0.03    0.00    0.00   88.65   22.54   61.41    2.24    0.00    0.00    0.00    0.00    0.00     0.00    0.00    0.00    0.00
    8   12.10    0.00    0.32    0.00    0.00    0.00   84.91   15.45   45.53    1.85    0.00    0.00    0.00    0.00    0.00     0.00    0.00    0.00    0.00
    9   19.60    0.00    0.80    0.00    0.00    0.00   85.44   18.25   38.49    1.94    0.00    0.00    0.00    0.00    0.00     0.00    0.00    0.00    0.00
   10   58.40    2.13    4.72    0.00    0.27    0.00  114.55   21.29   29.77    7.73    5.50    0.00    0.01    0.01    0.00     0.27    0.00    0.03    0.00
   11    2.40    0.00    0.42    0.00    0.00    0.00  115.96    0.87    1.25    0.47    0.00    0.00    0.00    0.00    0.00     0.00    0.00    0.00    0.00

 1990  478.70   56.55   67.39   73.48  125.07    0.00  115.96  231.19  389.31  219.45  159.41    0.00    0.21    3.09    0.00    24.86    0.00    3.04    0.00
1
    SWAT Nov 14  VER 2023/Rev 692                                                   

    General Input/Output section (file.cio):                                        
    5/19/2025 12:00:00 AM ARCGIS-SWAT interface AV                                  
                                                                                    
    FINAL VALUES

1
    SWAT Nov 14  VER 2023/Rev 692                                                   

    General Input/Output section (file.cio):                                        
    5/19/2025 12:00:00 AM ARCGIS-SWAT interface AV                                  
                                                                                    
                                            Average Plant Values (kg/ha)

  HRU       1 SUB   1 PJNL  Yld =     0.0 BIOM =      0.4
  HRU       2 SUB   1 PJNL  Yld =     0.0 BIOM =      0.4
  HRU       3 SUB   1 WETN  Yld =     0.0 BIOM =      0.0
  HRU       4 SUB   1 BARR  Yld =     0.0 BIOM =      0.0
  HRU       5 SUB   1 BARR  Yld =     0.0 BIOM =      0.0
  HRU       6 SUB   2 WETN  Yld =     0.0 BIOM =      0.0
  HRU       7 SUB   2 PJNL  Yld =     0.0 BIOM =      0.4
  HRU       8 SUB   2 PJNL  Yld =     0.0 BIOM =      0.4
  HRU       9 SUB   2 BARR  Yld =     0.0 BIOM =      0.0
  HRU      10 SUB   2 BARR  Yld =     0.0 BIOM =      0.0
  HRU      11 SUB   3 PJNL  Yld =     0.0 BIOM =      0.4
  HRU      12 SUB   3 PJNL  Yld =     0.0 BIOM =      0.4
  HRU      13 SUB   3 BARR  Yld =     0.0 BIOM =      0.0
  HRU      14 SUB   3 BARR  Yld =     0.0 BIOM =      0.0
  HRU      15 SUB   3 WETN  Yld =     0.0 BIOM =      0.0
  HRU      16 SUB   3 ES10  Yld =     0.0 BIOM =      0.0
  HRU      17 SUB   3 ES9   Yld =     0.0 BIOM =      0.0
  HRU      18 SUB   3 ES9   Yld =     0.0 BIOM =      0.0
  HRU      19 SUB   3 ES11  Yld =     0.0 BIOM =      0.0
  HRU      20 SUB   3 ES12  Yld =     0.0 BIOM =      0.0
  HRU      21 SUB   3 ES13  Yld =     0.0 BIOM =      0.0

    HRU STATISTICS

                AVE ANNUAL VALUES

   HRU  SUB  SOIL       AREAkm2    CN     AWCmm   USLE_LS  IRRmm  AUTONkh AUTOPkh  MIXEF PRECmm SURQGENmm   GWQmm    ETmm   SEDth  NO3kgh  ORGNkgh BIOMth   YLDth  SURQmm
      1   1   I-Bh-Tv-   .138E+01   88.74  120.00    7.86    0.00    0.00    0.00    0.21 1015.17  275.44  358.69  260.25  969.88    0.68   49.84    0.00    0.00  275.44
      2   1   I-Bh-Tv-   .336E-01   88.74  120.00    0.07    0.00    0.00    0.00    0.21 1015.17  277.13  323.18  263.13    1.38    0.01   14.44    0.00    0.00  277.12
      3   1   I-Bh-Tv-   .717E-01   88.74  120.00    0.07    0.00    0.00    0.00    0.21 1015.17  277.31  248.91  260.80    2.20    0.01   19.84    0.00    0.00  277.31
      4   1   I-Bh-Tv-   .230E+00   88.74  120.00    9.50    0.00    0.00    0.00    0.21 1015.17  275.67  342.64  256.85  965.92    0.76   49.84    0.00    0.00  275.67
      5   1   I-Bh-Tv-   .250E-02   88.74  120.00    0.07    0.00    0.00    0.00    0.21 1015.17  277.36  302.85  260.21    1.03    0.01   11.59    0.00    0.00  277.35
      6   2   I-Bh-Tv-   .225E+00   88.74  120.00    0.07    0.00    0.00    0.00    0.21 1015.17  277.30  248.56  261.22    2.52    0.01   21.53    0.00    0.00  277.30
      7   2   I-Bh-Tv-   .909E+00   88.74  120.00    4.45    0.00    0.00    0.00    0.21 1015.17  275.65  349.49  261.51  525.25    0.51   49.12    0.00    0.00  275.65
      8   2   I-Bh-Tv-   .272E-01   88.74  120.00    0.07    0.00    0.00    0.00    0.21 1015.17  277.11  322.66  263.58    1.34    0.01   14.17    0.00    0.00  277.10
      9   2   I-Bh-Tv-   .106E+01   88.74  120.00    6.50    0.00    0.00    0.00    0.21 1015.17  275.79  335.28  257.94  781.73    0.62   49.64    0.00    0.00  275.79
     10   2   I-Bh-Tv-   .688E-02   88.74  120.00    0.07    0.00    0.00    0.00    0.21 1015.17  277.34  302.28  260.62    1.17    0.01   12.76    0.00    0.00  277.34
     11   3   I-Bh-Tv-   .128E+01   88.74  120.00    7.36    0.00    0.00    0.00    0.21 1015.17  275.34  394.48  261.89  897.37    0.66   49.77    0.00    0.00  275.34
     12   3   I-Bh-Tv-   .198E-01   88.74  120.00    0.07    0.00    0.00    0.00    0.21 1015.17  277.02  380.84  264.67    1.29    0.01   13.77    0.00    0.00  277.02
     13   3   I-Bh-Tv-   .426E+00   88.74  120.00    8.04    0.00    0.00    0.00    0.21 1015.17  275.71  376.31  257.70  875.60    0.69   49.75    0.00    0.00  275.71
     14   3   I-Bh-Tv-   .297E-02   88.74  120.00    0.07    0.00    0.00    0.00    0.21 1015.17  277.34  361.33  260.74    1.06    0.01   11.79    0.00    0.00  277.33
     15   3   I-Bh-Tv-   .256E-01   88.74  120.00    0.07    0.00    0.00    0.00    0.21 1015.17  277.29  307.91  261.34    1.95    0.01   18.33    0.00    0.00  277.29
     16   3   I-Bh-Tv-   .337E-01   88.74  120.00    6.34    0.00    0.00    0.00    0.21 1015.17  275.79  451.21  258.10  513.95    0.61   49.08    0.00    0.00  275.79
     17   3   I-Bh-Tv-   .156E-01   88.74  120.00    6.52    0.00    0.00    0.00    0.21 1015.17  275.78  451.37  258.05  481.87    0.62   48.98    0.00    0.00  275.78
     18   3   I-Bh-Tv-   .313E-03   88.74  120.00    0.07    0.00    0.00    0.00    0.21 1015.17  277.34  438.72  260.74    0.79    0.01    9.26    0.00    0.00  277.33
     19   3   I-Bh-Tv-   .183E-01   88.74  120.00   10.83    0.00    0.00    0.00    0.21 1015.17  275.58  454.96  257.07  816.90    0.81   49.68    0.00    0.00  275.58
     20   3   I-Bh-Tv-   .688E-02   88.74  120.00   14.52    0.00    0.00    0.00    0.21 1015.17  275.42  457.68  256.26  974.54    0.96   49.84    0.00    0.00  275.42
     21   3   I-Bh-Tv-   .187E-02   88.74  120.00   15.10    0.00    0.00    0.00    0.21 1015.17  275.39  458.10  256.13  867.67    0.98   49.74    0.00    0.00  275.39



                AVE MONTHLY BASIN VALUES
                   SNOW                      WATER               SED
  MON     RAIN     FALL   SURF Q    LAT Q    YIELD       ET    YIELD      PET
          (MM)     (MM)     (MM)     (MM)     (MM)     (MM)   (T/HA)     (MM)
    1   207.81     0.00    63.75    37.06   123.86    15.41   177.01    15.41
    2   246.76     0.00   106.71    36.87   191.45    20.67   314.44    20.99
    3   174.82     0.00    50.46    29.82   146.55    32.65   126.71    34.54
    4    72.33     0.00    12.01    12.28    81.63    33.71    38.70    39.06
    5    23.22     0.00     0.57     1.74    34.30    30.14     1.48    52.90
    6    12.25     0.00     0.03     0.38     9.19    21.62     0.09    54.07
    7     8.30     0.00     0.00     0.11     5.29    17.14     0.00    58.06
    8    13.91     0.00     0.28     0.42     3.88    16.13     0.93    50.94
    9    22.79     0.00     0.13     1.02     3.44    17.68     0.34    41.01
   10    52.63     0.00     3.59     4.21     9.57    20.53    11.40    29.49
   11    81.42     0.00    15.32    11.44    28.38    18.62    45.66    20.14
   12   139.47     0.00    37.36    24.44    67.15    16.09    91.51    17.19

     AVE ANNUAL BASIN STRESS DAYS
               WATER STRESS DAYS =     1.89
               TEMPERATURE STRESS DAYS =   146.15
               NITROGEN STRESS DAYS =     0.00
               PHOSPHORUS STRESS DAYS =     0.00
               AERATION STRESS DAYS =     0.00
1
    SWAT Nov 14  VER 2023/Rev 692                                                   

    General Input/Output section (file.cio):                                        
    5/19/2025 12:00:00 AM ARCGIS-SWAT interface AV                                  
                                                                                    
         AVE ANNUAL BASIN VALUES

              PRECIP =   1015.2 MM
              SNOW FALL =    0.00 MM
              SNOW MELT =     0.00 MM
              SUBLIMATION =     0.00 MM
              SURFACE RUNOFF Q =   275.68 MM
              LATERAL SOIL Q =  152.41 MM
              TILE Q =     0.00 MM
              GROUNDWATER (SHAL AQ) Q =   204.12 MM
              GROUNDWATER (DEEP AQ) Q =    44.18 MM
              REVAP (SHAL AQ => SOIL/PLANTS) =   68.39 MM
              DEEP AQ RECHARGE =    44.43 MM
              TOTAL AQ RECHARGE =  321.50 MM
              TOTAL WATER YLD =   676.38 MM
              PERCOLATION OUT OF SOIL =  321.59 MM
              ET =    260.1 MM
              PET =    441.1MM
              TRANSMISSION LOSSES =     0.00 MM
              SEPTIC INFLOW =     0.00 MM
              TOTAL SEDIMENT LOADING =    768.29 T/HA
              TILE FROM IMPOUNDED WATER =     0.000 (MM)
              EVAPORATION FROM IMPOUNDED WATER =     0.000 (MM)
              SEEPAGE INTO SOIL FROM IMPOUNDED WATER =    0.000 (MM)
              OVERFLOW FROM IMPOUNDED WATER =    0.000 (MM)
1
    SWAT Nov 14  VER 2023/Rev 692                                                   

    General Input/Output section (file.cio):                                        
    5/19/2025 12:00:00 AM ARCGIS-SWAT interface AV                                  
                                                                                    
              AVE ANNUAL BASIN VALUES


              NUTRIENTS
                   ORGANIC N =    47.470 (KG/HA)
                   ORGANIC P =     5.812 (KG/HA)
                   NO3 YIELD (SQ) =     0.008 (KG/HA)
                   NO3 YIELD (LAT) =    0.585 (KG/HA)
                   NO3 YIELD (TILE) =      0.000 (KG/HA)
                   SOLP YIELD (TILE) =    0.000(KG/HA)
                   SOLP YIELD (SURF INLET RISER) =    0.000 (KG/HA)
                   SOL P YIELD =    0.006 (KG/HA)
                   NO3 LEACHED =     8.935 (KG/HA)
                   P LEACHED =     0.134 (KG/HA)
                   N UPTAKE =     0.000 (KG/HA)
                   P UPTAKE =    0.000 (KG/HA)
                   NO3 YIELD (GWQ) =     0.076 (KG/HA)
                   ACTIVE TO SOLUTION P FLOW =         1.927 (KG/HA)
                   ACTIVE TO STABLE P FLOW =         4.247 (KG/HA)
                   N FERTILIZER APPLIED =     0.000 (KG/HA)
                   P FERTILIZER APPLIED =     0.000 (KG/HA)
                   N FIXATION =     0.000 (KG/HA)
                   DENITRIFICATION =     0.000 (KG/HA)
                   HUMUS MIN ON ACTIVE ORG N =     7.938 (KG/HA)
                   ACTIVE TO STABLE ORG N =    -4.150 (KG/HA)
                   HUMUS MIN ON ACTIVE ORG P =    1.360 (KG/HA)
                   MIN FROM FRESH ORG N =    0.000 (KG/HA)
                   MIN FROM FRESH ORG P =    0.000 (KG/HA)
                   NO3 IN RAINFALL =       0.000 (KG/HA)
                   INITIAL NO3 IN SOIL =      35.560 (KG/HA)
                   FINAL NO3 IN SOIL =         8.706 (KG/HA)
                   INITIAL ORG N IN SOIL =   12599.999 (KG/HA)
                   FINAL ORG N IN SOIL =     12071.570 (KG/HA)
                   INITIAL MIN P IN SOIL =    1789.938 (KG/HA)
                   FINAL MIN P IN SOIL =      1755.677 (KG/HA)
                   INITIAL ORG P IN SOIL =    1543.500 (KG/HA)
                   FINAL ORG P IN SOIL =    1475.114 (KG/HA)
                   NO3 IN FERT =     0.000 (KG/HA)
                   AMMONIA IN FERT =     0.000 (KG/HA)
                   ORG N IN FERT =     0.000 (KG/HA)
                   MINERAL P IN FERT =     0.000 (KG/HA)
                   ORG P IN FERT =     0.000 (KG/HA)
                   N REMOVED IN YIELD =     0.000 (KG/HA)
                   P REMOVED IN YIELD =     0.000 (KG/HA)
                   AMMONIA VOLATILIZATION =     0.000 (KG/HA)
                   AMMONIA NITRIFICATION =      0.000 (KG/HA)
                   NO3 EVAP-LAYER 2 TO 1 =    0.987

                   DIE-GRO P Q =           0.0 (No/M2)
                   DIE-GRO LP Q =           0.0 (No/M2)
                   DIE-GRO P SED =          0.0 (No/M2)
                   DIE-GRO LP SED =          0.0 (No/M2)
                   BACT P RUNOFF =          0.0 (No/M2)
                   BACT LP RUNOFF =          0.0 (No/M2)
                   BACT P SEDIMENT =          0.0 (No/M2)
                   BACT LP SEDIMENT =          0.0 (No/M2)
                   BACT P INCORP =          0.0 (No/M2)
                   BACT LP INCORP =          0.0 (No/M2)

                   NITRATE SEPTIC =         0.00 (kg/ha)
                   AMMONIA SEPTIC =         0.00 (kg/ha)
                   ORG N SEPTIC =         0.00 (kg/ha)
                   FRESH ORGN SEPTIC =         0.00 (kg/ha)
                   ORG P SEPTIC =         0.00 (kg/ha)
                   FRESH ORGP SEPTIC =         0.00 (kg/ha)
                   SOL P SEPTIC =         0.00 (kg/ha)
                   BOD SEPTIC =         0.00 (kg/ha)
