1
    SWAT Nov 14  VER 2023/Rev 692                                                                        0/ 0/   0      0: 0: 0

    General Input/Output section (file.cio):                                        
    5/19/2025 12:00:00 AM ARCGIS-SWAT interface AV                                  
                                                                                    


       SUB      GIS  MON   AREAkm2  PRECIPmm SNOMELTmm     PETmm      ETmm      SWmm    PERCmm    SURQmm    GW_Qmm    WYLDmm  SYLDt/ha ORGNkg/ha ORGPkg/haNSURQkg/ha SOLPkg/ha SEDPkg/ha LAT Q(mm)LATNO3kg/hGWNO3kg/haCHOLAmic/LCBODU mg/L DOXQ mg/L TNO3kg/ha   QTILEmm TVAPkg/ha
BIGSUB    1        0    4.17227E+01     3.100     0.000    19.115     6.663    61.851     0.000     0.000     0.000     0.013     0.000     0.000     0.000     0.000     0.000     0.000     0.013     0.000     0.000 .00000E+00 0.000E+00 0.000E+00 0.000E+00 0.000E+00 0.000E+00
BIGSUB    2        0    4.22328E+01     3.100     0.000    19.157     6.672    61.846     0.000     0.000     0.000     0.009     0.000     0.000     0.000     0.000     0.000     0.000     0.009     0.000     0.000 .00000E+00 0.000E+00 0.000E+00 0.000E+00 0.000E+00 0.000E+00
BIGSUB    3        0    4.18344E+01     3.100     0.000    19.169     6.698    61.816     0.000     0.000     0.000     0.012     0.000     0.000     0.000     0.000     0.000     0.000     0.012     0.000     0.000 .00000E+00 0.000E+00 0.000E+00 0.000E+00 0.000E+00 0.000E+00
BIGSUB    1        0    5.17227E+01    11.300     0.000    53.156    15.016    57.834     0.000     0.000     0.000     0.225     0.000     0.000     0.000     0.000     0.000     0.000     0.225     0.005     0.000 .00000E+00 0.000E+00 0.000E+00 0.000E+00 0.000E+00 0.000E+00
BIGSUB    2        0    5.22328E+01    11.300     0.000    53.353    15.054    57.865     0.000     0.000     0.000     0.170     0.000     0.000     0.000     0.000     0.000     0.000     0.170     0.004     0.000 .00000E+00 0.000E+00 0.000E+00 0.000E+00 0.000E+00 0.000E+00
BIGSUB    3        0    5.18344E+01    11.300     0.000    53.411    15.115    57.702     0.000     0.000     0.000     0.224     0.000     0.000     0.000     0.000     0.000     0.000     0.224     0.005     0.000 .00000E+00 0.000E+00 0.000E+00 0.000E+00 0.000E+00 0.000E+00
BIGSUB    1        0    6.17227E+01     8.000     0.000    59.726    13.277    52.354     0.000     0.000     0.000     0.276     0.000     0.000     0.000     0.000     0.000     0.000     0.276     0.005     0.000 .00000E+00 0.000E+00 0.000E+00 0.000E+00 0.000E+00 0.000E+00
BIGSUB    2        0    6.22328E+01     8.000     0.000    59.979    13.324    52.388     0.000     0.000     0.000     0.209     0.000     0.000     0.000     0.000     0.000     0.000     0.209     0.004     0.000 .00000E+00 0.000E+00 0.000E+00 0.000E+00 0.000E+00 0.000E+00
BIGSUB    3        0    6.18344E+01     8.000     0.000    60.052    13.351    52.149     0.000     0.000     0.000     0.275     0.000     0.000     0.000     0.000     0.000     0.000     0.275     0.005     0.000 .00000E+00 0.000E+00 0.000E+00 0.000E+00 0.000E+00 0.000E+00
BIGSUB    1        0    7.17227E+01     5.200     0.000    60.300    10.216    47.338     0.000     0.000     0.000     0.006     0.000     0.000     0.000     0.000     0.000     0.000     0.006     0.000     0.000 .00000E+00 0.000E+00 0.000E+00 0.000E+00 0.000E+00 0.000E+00
BIGSUB    2        0    7.22328E+01     5.200     0.000    60.518    10.244    47.344     0.000     0.000     0.000     0.005     0.000     0.000     0.000     0.000     0.000     0.000     0.004     0.000     0.000 .00000E+00 0.000E+00 0.000E+00 0.000E+00 0.000E+00 0.000E+00
BIGSUB    3        0    7.18344E+01     5.200     0.000    60.582    10.273    47.076     0.000     0.000     0.000     0.006     0.000     0.000     0.000     0.000     0.000     0.000     0.006     0.000     0.000 .00000E+00 0.000E+00 0.000E+00 0.000E+00 0.000E+00 0.000E+00
BIGSUB    1        0    8.17227E+01    17.000     0.000    52.299    13.737    49.860     0.000     0.000     0.000     0.691     0.000     0.000     0.000     0.000     0.000     0.000     0.691     0.018     0.000 .00000E+00 0.000E+00 0.000E+00 0.000E+00 0.000E+00 0.000E+00
BIGSUB    2        0    8.22328E+01    17.000     0.000    52.489    13.788    49.995     0.000     0.000     0.000     0.523     0.000     0.000     0.000     0.000     0.000     0.000     0.523     0.013     0.000 .00000E+00 0.000E+00 0.000E+00 0.000E+00 0.000E+00 0.000E+00
BIGSUB    3        0    8.18344E+01    17.000     0.000    52.544    13.794    49.543     0.000     0.000     0.000     0.689     0.000     0.000     0.000     0.000     0.000     0.000     0.689     0.018     0.000 .00000E+00 0.000E+00 0.000E+00 0.000E+00 0.000E+00 0.000E+00
BIGSUB    1        0    9.17227E+01    23.000     0.000    44.899    17.216    54.418     0.000     0.004     0.000     1.215     0.007     0.017     0.002     0.000     0.000     0.002     1.211     0.010     0.000 .00000E+00 0.000E+00 0.000E+00 0.000E+00 0.000E+00 0.000E+00
BIGSUB    2        0    9.22328E+01    23.000     0.000    45.044    17.320    54.744     0.000     0.004     0.000     0.921     0.005     0.013     0.002     0.000     0.000     0.001     0.917     0.007     0.000 .00000E+00 0.000E+00 0.000E+00 0.000E+00 0.000E+00 0.000E+00
BIGSUB    3        0    9.18344E+01    23.000     0.000    45.086    17.264    54.056     0.000     0.003     0.000     1.211     0.006     0.014     0.002     0.000     0.000     0.001     1.208     0.010     0.000 .00000E+00 0.000E+00 0.000E+00 0.000E+00 0.000E+00 0.000E+00
BIGSUB    1        0   10.17227E+01    49.400     0.000    30.701    16.205    81.919     0.000     0.641     0.000     4.637     2.021     4.734     0.580     0.001     0.000     0.452     3.996     0.029     0.000 .00000E+00 0.000E+00 0.000E+00 0.000E+00 0.000E+00 0.000E+00
BIGSUB    2        0   10.22328E+01    49.400     0.000    30.758    16.374    83.188     0.000     0.666     0.000     3.757     1.340     3.450     0.423     0.001     0.000     0.329     3.091     0.026     0.000 .00000E+00 0.000E+00 0.000E+00 0.000E+00 0.000E+00 0.000E+00
BIGSUB    3        0   10.18344E+01    49.400     0.000    30.775    16.238    81.530     0.000     0.631     0.000     4.631     1.885     4.518     0.553     0.001     0.000     0.431     4.000     0.030     0.000 .00000E+00 0.000E+00 0.000E+00 0.000E+00 0.000E+00 0.000E+00
BIGSUB    1        0   11.17227E+01   115.800     0.000    19.407    18.784   119.976    20.666    17.056     0.000    36.094    61.760    95.851    11.740     0.007     0.004     9.173    19.010     0.460     0.000 .00000E+00 0.000E+00 0.000E+00 0.000E+00 0.000E+00 0.000E+00
BIGSUB    2        0   11.22328E+01   115.800     0.000    19.441    18.815   120.007    26.096    17.307     0.000    32.286    40.275    73.030     8.945     0.007     0.004     6.983    14.943     0.373     0.000 .00000E+00 0.000E+00 0.000E+00 0.000E+00 0.000E+00 0.000E+00
BIGSUB    3        0   11.18344E+01   115.800     0.000    19.450    18.837   119.973    20.178    17.069     0.000    36.155    58.311    94.310    11.552     0.007     0.004     9.023    19.079     0.463     0.000 .00000E+00 0.000E+00 0.000E+00 0.000E+00 0.000E+00 0.000E+00
BIGSUB    1        0   12.17227E+01   187.700     0.000    18.251    17.963   120.030    76.538    55.443     0.006    90.826   170.398    82.374    10.089     0.009     0.005     8.112    34.538     0.741     0.000 .00000E+00 0.000E+00 0.000E+00 0.000E+00 0.000E+00 0.000E+00
BIGSUB    2        0   12.22328E+01   187.700     0.000    18.254    17.893   120.109    84.781    55.348     0.004    83.189   109.921    86.856    10.638     0.008     0.007     8.470    26.966     0.580     0.000 .00000E+00 0.000E+00 0.000E+00 0.000E+00 0.000E+00 0.000E+00
BIGSUB    3        0   12.18344E+01   187.700     0.000    18.255    17.948   120.001    76.409    55.554     0.458    90.936   160.801    88.839    10.881     0.009     0.005     8.724    34.703     0.746     0.001 .00000E+00 0.000E+00 0.000E+00 0.000E+00 0.000E+00 0.000E+00
BIGSUB    1        0 1981.17227E+01   420.500     0.000   357.854   129.077   120.030    97.205    73.145     0.006   133.984   234.187   182.976    22.411     0.016     0.009    17.738    59.966     1.269     0.000 .00000E+00 0.000E+00 0.000E+00 0.000E+00 0.000E+00 0.000E+00
BIGSUB    2        0 1981.22328E+01   420.500     0.000   358.993   129.485   120.109   110.877    73.325     0.004   121.069   151.542   163.349    20.007     0.016     0.011    15.783    46.833     1.009     0.000 .00000E+00 0.000E+00 0.000E+00 0.000E+00 0.000E+00 0.000E+00
BIGSUB    3        0 1981.18344E+01   420.500     0.000   359.324   129.519   120.001    96.587    73.257     0.458   134.138   221.003   187.681    22.988     0.016     0.009    18.180    60.195     1.278     0.001 .00000E+00 0.000E+00 0.000E+00 0.000E+00 0.000E+00 0.000E+00
BIGSUB    1        0    1.17227E+01   205.900     0.000    13.359    13.359   120.055    90.394    58.494     8.067   112.447   179.121    31.937     3.912     0.002     0.003     3.154    42.855     0.558     0.016 .00000E+00 0.000E+00 0.000E+00 0.000E+00 0.000E+00 0.000E+00
BIGSUB    2        0    1.22328E+01   205.900     0.000    13.364    13.364   120.119    99.991    58.535     7.383   102.375   115.520    34.461     4.221     0.002     0.004     3.401    33.427     0.428     0.016 .00000E+00 0.000E+00 0.000E+00 0.000E+00 0.000E+00 0.000E+00
BIGSUB    3        0    1.18344E+01   205.900     0.000    13.366    13.366   120.023    90.198    58.465    13.690   116.027   169.068    33.836     4.144     0.002     0.002     3.345    43.054     0.560     0.027 .00000E+00 0.000E+00 0.000E+00 0.000E+00 0.000E+00 0.000E+00
BIGSUB    1        0    2.17227E+01   310.000     0.000    22.544    22.544   120.030   106.327   129.572    41.329   230.680   524.966     2.998     0.367     0.001     0.003     0.327    54.424     0.382     0.082 .00000E+00 0.000E+00 0.000E+00 0.000E+00 0.000E+00 0.000E+00
BIGSUB    2        0    2.22328E+01   310.000     0.000    22.573    22.572   120.065   117.678   129.723    30.737   208.265   338.717     8.068     0.988     0.001     0.005     0.835    42.446     0.285     0.062 .00000E+00 0.000E+00 0.000E+00 0.000E+00 0.000E+00 0.000E+00
BIGSUB    3        0    2.18344E+01   310.000     0.000    22.581    22.581   120.013   106.065   129.447    49.435   235.011   495.170     3.406     0.417     0.001     0.002     0.374    54.671     0.381     0.097 .00000E+00 0.000E+00 0.000E+00 0.000E+00 0.000E+00 0.000E+00
BIGSUB    1        0    3.17227E+01   142.100     0.000    26.536    26.028   118.263    52.021    39.700    61.971   138.335   146.857     0.179     0.022     0.001     0.001     0.020    28.210     0.121     0.084 .00000E+00 0.000E+00 0.000E+00 0.000E+00 0.000E+00 0.000E+00
BIGSUB    2        0    3.22328E+01   142.100     0.000    26.641    26.126   118.259    57.717    39.731    56.328   126.671    94.681     0.393     0.048     0.001     0.001     0.042    22.001     0.089     0.079 .00000E+00 0.000E+00 0.000E+00 0.000E+00 0.000E+00 0.000E+00
BIGSUB    3        0    3.18344E+01   142.100     0.000    26.671    26.169   118.250    51.789    39.666    73.597   143.897   138.592     0.066     0.008     0.001     0.000     0.010    28.313     0.121     0.099 .00000E+00 0.000E+00 0.000E+00 0.000E+00 0.000E+00 0.000E+00
BIGSUB    1        0    4.17227E+01    72.500     0.000    32.404    27.614   117.284    19.330    15.431    52.032    89.606    45.813     0.075     0.009     0.001     0.000     0.007    13.035     0.044     0.041 .00000E+00 0.000E+00 0.000E+00 0.000E+00 0.000E+00 0.000E+00
BIGSUB    2        0    4.22328E+01    72.500     0.000    32.522    27.705   117.280    21.672    15.437    51.508    86.643    29.544     0.165     0.020     0.001     0.000     0.016    10.170     0.032     0.046 .00000E+00 0.000E+00 0.000E+00 0.000E+00 0.000E+00 0.000E+00
BIGSUB    3        0    4.18344E+01    72.500     0.000    32.556    27.799   117.257    19.144    15.418    62.248    93.257    43.220     0.027     0.003     0.001     0.000     0.003    13.068     0.044     0.051 .00000E+00 0.000E+00 0.000E+00 0.000E+00 0.000E+00 0.000E+00
BIGSUB    1        0    5.17227E+01    16.800     0.000    52.498    28.670   104.171     0.000     0.465    26.874    37.166     1.877     0.002     0.000     0.000     0.000     0.000     1.147     0.000     0.011 .00000E+00 0.000E+00 0.000E+00 0.000E+00 0.000E+00 0.000E+00
BIGSUB    2        0    5.22328E+01    16.800     0.000    52.716    28.823   104.207     0.000     0.470    32.740    43.494     1.211     0.005     0.001     0.000     0.000     0.000     0.883     0.000     0.018 .00000E+00 0.000E+00 0.000E+00 0.000E+00 0.000E+00 0.000E+00
BIGSUB    3        0    5.18344E+01    16.800     0.000    52.780    28.896   103.922     0.000     0.457    37.052    41.080     1.766     0.001     0.000     0.000     0.000     0.000     1.142     0.000     0.017 .00000E+00 0.000E+00 0.000E+00 0.000E+00 0.000E+00 0.000E+00
BIGSUB    1        0    6.17227E+01     7.700     0.000    58.457    19.560    92.201     0.000     0.000     1.351     8.397     0.000     0.000     0.000     0.000     0.000     0.000     0.149     0.000     0.000 .00000E+00 0.000E+00 0.000E+00 0.000E+00 0.000E+00 0.000E+00
BIGSUB    2        0    6.22328E+01     7.700     0.000    58.687    19.624    92.200     0.000     0.000     4.222    12.094     0.000     0.000     0.000     0.000     0.000     0.000     0.112     0.000     0.002 .00000E+00 0.000E+00 0.000E+00 0.000E+00 0.000E+00 0.000E+00
BIGSUB    3        0    6.18344E+01     7.700     0.000    58.754    19.714    91.799     0.000     0.000     3.619     5.721     0.000     0.000     0.000     0.000     0.000     0.000     0.148     0.000     0.001 .00000E+00 0.000E+00 0.000E+00 0.000E+00 0.000E+00 0.000E+00
BIGSUB    1        0    7.17227E+01     6.700     0.000    61.193    15.845    83.056     0.000     0.000     0.035     5.613     0.000     0.000     0.000     0.000     0.000     0.000     0.007     0.000     0.000 .00000E+00 0.000E+00 0.000E+00 0.000E+00 0.000E+00 0.000E+00
BIGSUB    2        0    7.22328E+01     6.700     0.000    61.413    15.396    83.504     0.000     0.000     0.385     6.881     0.000     0.000     0.000     0.000     0.000     0.000     0.005     0.000     0.000 .00000E+00 0.000E+00 0.000E+00 0.000E+00 0.000E+00 0.000E+00
BIGSUB    3        0    7.18344E+01     6.700     0.000    61.478    15.837    82.662     0.000     0.000     0.681     2.285     0.000     0.000     0.000     0.000     0.000     0.000     0.007     0.000     0.000 .00000E+00 0.000E+00 0.000E+00 0.000E+00 0.000E+00 0.000E+00
BIGSUB    1        0    8.17227E+01    12.300     0.000    42.110    15.124    79.896     0.000     0.000     0.005     4.494     0.000     0.000     0.000     0.000     0.000     0.000     0.256     0.001     0.000 .00000E+00 0.000E+00 0.000E+00 0.000E+00 0.000E+00 0.000E+00
BIGSUB    2        0    8.22328E+01    12.300     0.000    42.278    14.496    81.061     0.000     0.000     0.047     5.324     0.000     0.000     0.000     0.000     0.000     0.000     0.188     0.000     0.000 .00000E+00 0.000E+00 0.000E+00 0.000E+00 0.000E+00 0.000E+00
BIGSUB    3        0    8.18344E+01    12.300     0.000    42.327    15.019    79.612     0.000     0.000     0.139     1.618     0.000     0.000     0.000     0.000     0.000     0.000     0.253     0.001     0.000 .00000E+00 0.000E+00 0.000E+00 0.000E+00 0.000E+00 0.000E+00
BIGSUB    1        0    9.17227E+01    21.900     0.000    41.236    17.283    82.979     0.000     0.356     0.000     4.291     0.965     0.001     0.000     0.000     0.000     0.000     0.848     0.001     0.000 .00000E+00 0.000E+00 0.000E+00 0.000E+00 0.000E+00 0.000E+00
BIGSUB    2        0    9.22328E+01    21.900     0.000    41.373    16.860    84.837     0.000     0.373     0.000     4.818     0.672     0.002     0.000     0.000     0.000     0.000     0.635     0.001     0.000 .00000E+00 0.000E+00 0.000E+00 0.000E+00 0.000E+00 0.000E+00
BIGSUB    3        0    9.18344E+01    21.900     0.000    41.414    17.223    82.763     0.000     0.357     0.000     2.102     0.905     0.000     0.000     0.000     0.000     0.000     0.843     0.001     0.000 .00000E+00 0.000E+00 0.000E+00 0.000E+00 0.000E+00 0.000E+00
BIGSUB    1        0   10.17227E+01    74.000     0.000    24.610    19.803   119.978     2.819     5.385     0.000    15.291    24.938     0.023     0.003     0.001     0.000     0.002     7.515     0.015     0.000 .00000E+00 0.000E+00 0.000E+00 0.000E+00 0.000E+00 0.000E+00
BIGSUB    2        0   10.22328E+01    74.000     0.000    24.693    19.997   120.004     5.976     5.598     0.000    14.589    16.699     0.053     0.006     0.001     0.000     0.005     5.975     0.014     0.000 .00000E+00 0.000E+00 0.000E+00 0.000E+00 0.000E+00 0.000E+00
BIGSUB    3        0   10.18344E+01    74.000     0.000    24.717    19.903   119.971     2.502     5.363     0.001    13.615    23.483     0.008     0.001     0.001     0.000     0.001     7.548     0.015     0.000 .00000E+00 0.000E+00 0.000E+00 0.000E+00 0.000E+00 0.000E+00
BIGSUB    1        0   11.17227E+01   115.800     0.000    17.490    17.439   119.996    49.368    24.464     0.048    51.359   105.788     0.115     0.014     0.001     0.000     0.011    24.732     0.150     0.000 .00000E+00 0.000E+00 0.000E+00 0.000E+00 0.000E+00 0.000E+00
BIGSUB    2        0   11.22328E+01   115.800     0.000    17.527    17.437   120.010    54.762    24.472     0.469    46.992    68.212     0.258     0.032     0.001     0.001     0.025    19.421     0.115     0.000 .00000E+00 0.000E+00 0.000E+00 0.000E+00 0.000E+00 0.000E+00
BIGSUB    3        0   11.18344E+01   115.800     0.000    17.537    17.481   119.993    49.223    24.461     0.768    50.668    99.788     0.042     0.005     0.001     0.000     0.004    24.826     0.150     0.000 .00000E+00 0.000E+00 0.000E+00 0.000E+00 0.000E+00 0.000E+00
BIGSUB    1        0   12.17227E+01    77.200     0.000    17.266    16.459   119.703    29.109    16.994     5.054    40.478    65.719     0.072     0.009     0.001     0.000     0.007    15.535     0.080     0.001 .00000E+00 0.000E+00 0.000E+00 0.000E+00 0.000E+00 0.000E+00
BIGSUB    2        0   12.22328E+01    77.200     0.000    17.270    16.414   119.760    32.384    17.001     9.984    42.443    42.369     0.160     0.020     0.000     0.000     0.015    12.128     0.060     0.003 .00000E+00 0.000E+00 0.000E+00 0.000E+00 0.000E+00 0.000E+00
BIGSUB    3        0   12.18344E+01    77.200     0.000    17.271    16.469   119.708    29.028    16.994    11.164    44.580    62.003     0.026     0.003     0.001     0.000     0.002    15.605     0.080     0.003 .00000E+00 0.000E+00 0.000E+00 0.000E+00 0.000E+00 0.000E+00
BIGSUB    1        0 1982.17227E+01  1062.900     0.000   409.703   239.728   119.703   349.370   290.861   196.766   738.157  1096.043    35.402     4.336     0.007     0.007     3.527   188.714     1.352     0.237 .00000E+00 0.000E+00 0.000E+00 0.000E+00 0.000E+00 0.000E+00
BIGSUB    2        0 1982.22328E+01  1062.900     0.000   411.059   238.814   119.760   390.180   291.339   193.804   700.590   707.622    43.565     5.336     0.007     0.012     4.341   147.391     1.025     0.227 .00000E+00 0.000E+00 0.000E+00 0.000E+00 0.000E+00 0.000E+00
BIGSUB    3        0 1982.18344E+01  1062.900     0.000   411.453   240.455   119.708   347.949   290.627   252.397   749.862  1033.996    37.412     4.582     0.007     0.005     3.738   189.475     1.351     0.296 .00000E+00 0.000E+00 0.000E+00 0.000E+00 0.000E+00 0.000E+00
BIGSUB    1        0    1.17227E+01   152.700     0.000    17.032    17.032   120.044    60.432    45.087    21.170    98.219   148.279    27.697     3.391     0.001     0.002     2.675    28.264     0.125     0.008 .00000E+00 0.000E+00 0.000E+00 0.000E+00 0.000E+00 0.000E+00
BIGSUB    2        0    1.22328E+01   152.700     0.000    17.055    17.055   120.096    66.936    45.050    21.722    92.905    95.616    23.575     2.887     0.001     0.002     2.273    22.053     0.093     0.007 .00000E+00 0.000E+00 0.000E+00 0.000E+00 0.000E+00 0.000E+00
BIGSUB    3        0    1.18344E+01   152.700     0.000    17.062    17.062   120.019    60.303    45.114    26.770   101.309   139.870    27.929     3.420     0.001     0.002     2.696    28.392     0.125     0.009 .00000E+00 0.000E+00 0.000E+00 0.000E+00 0.000E+00 0.000E+00
BIGSUB    1        0    2.17227E+01   196.000     0.000    24.660    23.977   120.015    47.755   100.105    29.356   157.654   471.521     2.652     0.325     0.002     0.002     0.288    23.818     0.083     0.011 .00000E+00 0.000E+00 0.000E+00 0.000E+00 0.000E+00 0.000E+00
BIGSUB    2        0    2.22328E+01   196.000     0.000    24.721    24.037   120.032    53.049   100.164    28.046   151.490   304.004     6.046     0.740     0.002     0.003     0.611    18.582     0.062     0.010 .00000E+00 0.000E+00 0.000E+00 0.000E+00 0.000E+00 0.000E+00
BIGSUB    3        0    2.18344E+01   196.000     0.000    24.739    24.075   120.006    47.555   100.072    34.920   160.119   444.802     3.060     0.375     0.002     0.001     0.329    23.911     0.083     0.013 .00000E+00 0.000E+00 0.000E+00 0.000E+00 0.000E+00 0.000E+00
BIGSUB    1        0    3.17227E+01   255.900     0.000    36.016    35.885   120.067    79.896    99.256    40.975   184.865   362.742     0.430     0.053     0.002     0.001     0.044    38.535     0.106     0.016 .00000E+00 0.000E+00 0.000E+00 0.000E+00 0.000E+00 0.000E+00
BIGSUB    2        0    3.22328E+01   255.900     0.000    36.102    35.970   120.147    88.570    98.836    38.984   174.357   233.849     0.937     0.115     0.002     0.002     0.095    30.059     0.078     0.015 .00000E+00 0.000E+00 0.000E+00 0.000E+00 0.000E+00 0.000E+00
BIGSUB    3        0    3.18344E+01   255.900     0.000    36.128    36.014   120.029    79.652    99.575    48.368   188.324   342.234     0.160     0.020     0.002     0.001     0.020    38.688     0.105     0.019 .00000E+00 0.000E+00 0.000E+00 0.000E+00 0.000E+00 0.000E+00
BIGSUB    1        0    4.17227E+01   102.500     0.000    33.041    32.165   117.738    33.638    21.902    45.432    96.305    87.968     0.140     0.017     0.001     0.000     0.013    21.761     0.048     0.015 .00000E+00 0.000E+00 0.000E+00 0.000E+00 0.000E+00 0.000E+00
BIGSUB    2        0    4.22328E+01   102.500     0.000    33.173    32.286   117.789    37.451    22.350    43.852    90.817    56.709     0.295     0.036     0.001     0.001     0.028    16.970     0.035     0.015 .00000E+00 0.000E+00 0.000E+00 0.000E+00 0.000E+00 0.000E+00
BIGSUB    3        0    4.18344E+01   102.500     0.000    33.212    32.342   117.687    33.428    21.551    53.747    99.131    82.993     0.053     0.007     0.001     0.000     0.005    21.830     0.047     0.018 .00000E+00 0.000E+00 0.000E+00 0.000E+00 0.000E+00 0.000E+00
BIGSUB    1        0    5.17227E+01    19.800     0.000    45.560    31.252   105.362     0.000     0.205    25.448    34.426     0.866     0.001     0.000     0.000     0.000     0.000     1.305     0.001     0.005 .00000E+00 0.000E+00 0.000E+00 0.000E+00 0.000E+00 0.000E+00
BIGSUB    2        0    5.22328E+01    19.800     0.000    45.768    31.422   105.419     0.000     0.204    26.608    35.893     0.559     0.001     0.000     0.000     0.000     0.000     0.998     0.001     0.006 .00000E+00 0.000E+00 0.000E+00 0.000E+00 0.000E+00 0.000E+00
BIGSUB    3        0    5.18344E+01    19.800     0.000    45.829    31.450   105.116     0.000     0.203    34.324    37.919     0.815     0.000     0.000     0.000     0.000     0.000     1.303     0.001     0.007 .00000E+00 0.000E+00 0.000E+00 0.000E+00 0.000E+00 0.000E+00
BIGSUB    1        0    6.17227E+01    12.300     0.000    48.996    22.112    95.308     0.000     0.000     2.591     9.011     0.000     0.000     0.000     0.000     0.000     0.000     0.262     0.000     0.000 .00000E+00 0.000E+00 0.000E+00 0.000E+00 0.000E+00 0.000E+00
BIGSUB    2        0    6.22328E+01    12.300     0.000    49.226    21.707    95.832     0.000     0.000     5.182    12.266     0.000     0.000     0.000     0.000     0.000     0.000     0.196     0.000     0.001 .00000E+00 0.000E+00 0.000E+00 0.000E+00 0.000E+00 0.000E+00
BIGSUB    3        0    6.18344E+01    12.300     0.000    49.293    22.113    95.063     0.000     0.000     4.793     6.794     0.000     0.000     0.000     0.000     0.000     0.000     0.260     0.000     0.001 .00000E+00 0.000E+00 0.000E+00 0.000E+00 0.000E+00 0.000E+00
BIGSUB    1        0    7.17227E+01    11.000     0.000    49.647    19.318    86.852     0.000     0.000     0.246     5.434     0.000     0.000     0.000     0.000     0.000     0.000     0.134     0.000     0.000 .00000E+00 0.000E+00 0.000E+00 0.000E+00 0.000E+00 0.000E+00
BIGSUB    2        0    7.22328E+01    11.000     0.000    49.851    18.948    87.782     0.000     0.000     1.423     7.369     0.000     0.000     0.000     0.000     0.000     0.000     0.098     0.000     0.000 .00000E+00 0.000E+00 0.000E+00 0.000E+00 0.000E+00 0.000E+00
BIGSUB    3        0    7.18344E+01    11.000     0.000    49.911    19.307    86.620     0.000     0.000     1.402     2.979     0.000     0.000     0.000     0.000     0.000     0.000     0.132     0.000     0.000 .00000E+00 0.000E+00 0.000E+00 0.000E+00 0.000E+00 0.000E+00
BIGSUB    1        0    8.17227E+01    12.800     0.000    45.485    16.798    82.566     0.000     0.000     0.006     4.147     0.000     0.000     0.000     0.000     0.000     0.000     0.270     0.000     0.000 .00000E+00 0.000E+00 0.000E+00 0.000E+00 0.000E+00 0.000E+00
BIGSUB    2        0    8.22328E+01    12.800     0.000    45.668    16.661    83.706     0.000     0.000     0.235     5.059     0.000     0.000     0.000     0.000     0.000     0.000     0.202     0.000     0.000 .00000E+00 0.000E+00 0.000E+00 0.000E+00 0.000E+00 0.000E+00
BIGSUB    3        0    8.18344E+01    12.800     0.000    45.722    16.838    82.296     0.000     0.000     0.210     1.595     0.000     0.000     0.000     0.000     0.000     0.000     0.267     0.000     0.000 .00000E+00 0.000E+00 0.000E+00 0.000E+00 0.000E+00 0.000E+00
BIGSUB    1        0    9.17227E+01    30.900     0.000    38.532    18.940    92.157     0.000     0.365     0.000     4.816     1.395     0.001     0.000     0.001     0.000     0.000     1.616     0.001     0.000 .00000E+00 0.000E+00 0.000E+00 0.000E+00 0.000E+00 0.000E+00
BIGSUB    2        0    9.22328E+01    30.900     0.000    38.675    19.033    93.679     0.000     0.383     0.000     5.079     0.954     0.002     0.000     0.001     0.000     0.000     1.218     0.001     0.000 .00000E+00 0.000E+00 0.000E+00 0.000E+00 0.000E+00 0.000E+00
BIGSUB    3        0    9.18344E+01    30.900     0.000    38.716    19.014    91.823     0.000     0.361     0.001     2.800     1.303     0.000     0.000     0.001     0.000     0.000     1.611     0.001     0.000 .00000E+00 0.000E+00 0.000E+00 0.000E+00 0.000E+00 0.000E+00
BIGSUB    1        0   10.17227E+01    48.800     0.000    32.914    24.142   109.080     0.000     3.468     0.000    10.089    10.467     0.013     0.002     0.001     0.000     0.001     4.422     0.003     0.000 .00000E+00 0.000E+00 0.000E+00 0.000E+00 0.000E+00 0.000E+00
BIGSUB    2        0   10.22328E+01    48.800     0.000    32.978    24.677   110.884     0.000     3.560     0.000     9.782     6.930     0.027     0.003     0.001     0.000     0.003     3.463     0.003     0.000 .00000E+00 0.000E+00 0.000E+00 0.000E+00 0.000E+00 0.000E+00
BIGSUB    3        0   10.18344E+01    48.800     0.000    32.997    24.306   108.579     0.000     3.444     0.000     8.536     9.830     0.005     0.001     0.001     0.000     0.000     4.446     0.003     0.000 .00000E+00 0.000E+00 0.000E+00 0.000E+00 0.000E+00 0.000E+00
BIGSUB    1        0   11.17227E+01    56.000     0.000    23.556    18.849   119.635     7.794    11.043     0.000    18.721    31.656     0.041     0.005     0.001     0.000     0.004     6.085     0.023     0.000 .00000E+00 0.000E+00 0.000E+00 0.000E+00 0.000E+00 0.000E+00
BIGSUB    2        0   11.22328E+01    56.000     0.000    23.582    18.821   119.647    10.986    11.156     0.000    18.085    20.767     0.091     0.011     0.001     0.000     0.009     4.889     0.020     0.000 .00000E+00 0.000E+00 0.000E+00 0.000E+00 0.000E+00 0.000E+00
BIGSUB    3        0   11.18344E+01    56.000     0.000    23.589    18.890   119.630     7.278    11.041     0.000    17.603    29.812     0.015     0.002     0.001     0.000     0.001     6.091     0.023     0.000 .00000E+00 0.000E+00 0.000E+00 0.000E+00 0.000E+00 0.000E+00
BIGSUB    1        0   12.17227E+01   212.000     0.000    14.288    14.228   119.968    90.940    62.390     0.802   105.953   179.866     0.260     0.032     0.002     0.001     0.024    40.744     0.195     0.000 .00000E+00 0.000E+00 0.000E+00 0.000E+00 0.000E+00 0.000E+00
BIGSUB    2        0   12.22328E+01   212.000     0.000    14.291    14.193   120.000   100.623    62.382     1.595    98.201   115.951     0.553     0.068     0.001     0.001     0.052    31.843     0.149     0.001 .00000E+00 0.000E+00 0.000E+00 0.000E+00 0.000E+00 0.000E+00
BIGSUB    3        0   12.18344E+01   212.000     0.000    14.292    14.222   119.967    90.750    62.413     2.743   106.655   169.725     0.098     0.012     0.002     0.000     0.009    40.926     0.195     0.001 .00000E+00 0.000E+00 0.000E+00 0.000E+00 0.000E+00 0.000E+00
BIGSUB    1        0 1983.17227E+01  1110.700     0.000   409.729   274.699   119.968   320.455   343.821   166.027   729.638  1294.760    31.234     3.825     0.009     0.006     3.049   167.216     0.585     0.056 .00000E+00 0.000E+00 0.000E+00 0.000E+00 0.000E+00 0.000E+00
BIGSUB    2        0 1983.22328E+01  1110.700     0.000   411.092   274.811   120.000   357.615   344.086   167.648   701.302   835.338    31.528     3.861     0.009     0.009     3.070   130.571     0.442     0.054 .00000E+00 0.000E+00 0.000E+00 0.000E+00 0.000E+00 0.000E+00
BIGSUB    3        0 1983.18344E+01  1110.700     0.000   411.488   275.633   119.967   318.966   343.773   207.277   733.764  1221.382    31.320     3.835     0.009     0.004     3.062   167.855     0.584     0.068 .00000E+00 0.000E+00 0.000E+00 0.000E+00 0.000E+00 0.000E+00
BIGSUB    1        0    1.17227E+01   211.400     0.000    14.115    14.115   120.049    88.673    65.520    27.637   139.095   228.801    29.045     3.556     0.001     0.002     2.828    41.930     0.131     0.012 .00000E+00 0.000E+00 0.000E+00 0.000E+00 0.000E+00 0.000E+00
BIGSUB    2        0    1.22328E+01   211.400     0.000    14.132    14.132   120.107    98.054    65.492    26.733   129.182   147.524    26.262     3.215     0.001     0.002     2.549    32.702     0.098     0.011 .00000E+00 0.000E+00 0.000E+00 0.000E+00 0.000E+00 0.000E+00
BIGSUB    3        0    1.18344E+01   211.400     0.000    14.137    14.137   120.021    88.494    65.558    35.124   143.911   215.845    29.660     3.631     0.001     0.002     2.886    42.121     0.131     0.014 .00000E+00 0.000E+00 0.000E+00 0.000E+00 0.000E+00 0.000E+00
BIGSUB    1        0    2.17227E+01   434.000     0.000    21.638    21.638   120.047   136.935   208.994    53.745   333.885   569.205     1.630     0.200     0.001     0.002     0.171    64.825     0.121     0.025 .00000E+00 0.000E+00 0.000E+00 0.000E+00 0.000E+00 0.000E+00
BIGSUB    2        0    2.22328E+01   434.000     0.000    21.695    21.695   120.101   151.403   208.971    49.124   315.149   367.049     4.170     0.512     0.001     0.004     0.419    50.546     0.089     0.022 .00000E+00 0.000E+00 0.000E+00 0.000E+00 0.000E+00 0.000E+00
BIGSUB    3        0    2.18344E+01   434.000     0.000    21.712    21.712   120.020   136.609   209.055    63.277   339.180   536.961     1.347     0.165     0.001     0.001     0.148    65.109     0.120     0.029 .00000E+00 0.000E+00 0.000E+00 0.000E+00 0.000E+00 0.000E+00
BIGSUB    1        0    3.17227E+01   258.500     0.000    31.952    31.823   120.066    94.012    86.184    79.612   224.316   204.792     0.367     0.045     0.001     0.001     0.035    48.404     0.058     0.031 .00000E+00 0.000E+00 0.000E+00 0.000E+00 0.000E+00 0.000E+00
BIGSUB    2        0    3.22328E+01   258.500     0.000    32.080    31.949   120.144   104.087    86.203    73.867   208.190   132.028     0.739     0.091     0.001     0.001     0.070    37.743     0.043     0.028 .00000E+00 0.000E+00 0.000E+00 0.000E+00 0.000E+00 0.000E+00
BIGSUB    3        0    3.18344E+01   258.500     0.000    32.118    31.990   120.028    93.697    86.127    94.633   232.135   193.237     0.144     0.018     0.001     0.000     0.014    48.591     0.058     0.036 .00000E+00 0.000E+00 0.000E+00 0.000E+00 0.000E+00 0.000E+00
BIGSUB    1        0    4.17227E+01    79.600     0.000    42.399    39.074   116.919    21.072    10.505    70.576   110.207    37.014     0.054     0.007     0.000     0.000     0.005    17.721     0.019     0.017 .00000E+00 0.000E+00 0.000E+00 0.000E+00 0.000E+00 0.000E+00
BIGSUB    2        0    4.22328E+01    79.600     0.000    42.532    39.194   116.925    23.738    10.700    70.832   107.286    23.862     0.108     0.013     0.000     0.000     0.010    13.830     0.014     0.018 .00000E+00 0.000E+00 0.000E+00 0.000E+00 0.000E+00 0.000E+00
BIGSUB    3        0    4.18344E+01    79.600     0.000    42.571    39.288   116.882    20.838    10.337    84.105   115.370    34.914     0.021     0.003     0.000     0.000     0.002    17.767     0.019     0.020 .00000E+00 0.000E+00 0.000E+00 0.000E+00 0.000E+00 0.000E+00
BIGSUB    1        0    5.17227E+01    41.000     0.000    50.941    39.874   110.689     1.673     2.601    42.455    59.586     7.458     0.006     0.001     0.000     0.000     0.001     3.476     0.002     0.005 .00000E+00 0.000E+00 0.000E+00 0.000E+00 0.000E+00 0.000E+00
BIGSUB    2        0    5.22328E+01    41.000     0.000    51.145    40.009   110.697     2.203     2.605    51.840    69.108     4.816     0.013     0.002     0.000     0.000     0.001     2.720     0.002     0.008 .00000E+00 0.000E+00 0.000E+00 0.000E+00 0.000E+00 0.000E+00
BIGSUB    3        0    5.18344E+01    41.000     0.000    51.205    40.162   110.528     1.529     2.596    55.116    64.265     7.028     0.002     0.000     0.000     0.000     0.000     3.459     0.002     0.007 .00000E+00 0.000E+00 0.000E+00 0.000E+00 0.000E+00 0.000E+00
BIGSUB    1        0    6.17227E+01    23.600     0.000    53.037    32.577   100.947     0.000     0.018     5.044    14.692     0.042     0.000     0.000     0.000     0.000     0.000     0.742     0.000     0.000 .00000E+00 0.000E+00 0.000E+00 0.000E+00 0.000E+00 0.000E+00
BIGSUB    2        0    6.22328E+01    23.600     0.000    53.266    32.705   101.009     0.000     0.018    11.802    22.347     0.027     0.000     0.000     0.000     0.000     0.000     0.561     0.000     0.001 .00000E+00 0.000E+00 0.000E+00 0.000E+00 0.000E+00 0.000E+00
BIGSUB    3        0    6.18344E+01    23.600     0.000    53.332    32.759   100.608     0.000     0.017     8.267    11.537     0.039     0.000     0.000     0.000     0.000     0.000     0.738     0.000     0.001 .00000E+00 0.000E+00 0.000E+00 0.000E+00 0.000E+00 0.000E+00
BIGSUB    1        0    7.17227E+01     6.900     0.000    54.245    16.788    91.052     0.000     0.000     1.271     8.537     0.000     0.000     0.000     0.000     0.000     0.000     0.050     0.000     0.000 .00000E+00 0.000E+00 0.000E+00 0.000E+00 0.000E+00 0.000E+00
BIGSUB    2        0    7.22328E+01     6.900     0.000    54.455    16.850    91.054     0.000     0.000     4.474    12.892     0.000     0.000     0.000     0.000     0.000     0.000     0.037     0.000     0.000 .00000E+00 0.000E+00 0.000E+00 0.000E+00 0.000E+00 0.000E+00
BIGSUB    3        0    7.18344E+01     6.900     0.000    54.516    16.908    90.593     0.000     0.000     2.408     4.523     0.000     0.000     0.000     0.000     0.000     0.000     0.049     0.000     0.000 .00000E+00 0.000E+00 0.000E+00 0.000E+00 0.000E+00 0.000E+00
BIGSUB    1        0    8.17227E+01    13.300     0.000    45.388    16.350    87.461     0.000     0.000     0.224     6.229     0.000     0.000     0.000     0.000     0.000     0.000     0.507     0.001     0.000 .00000E+00 0.000E+00 0.000E+00 0.000E+00 0.000E+00 0.000E+00
BIGSUB    2        0    8.22328E+01    13.300     0.000    45.573    16.130    87.817     0.000     0.000     0.964     7.935     0.000     0.000     0.000     0.000     0.000     0.000     0.382     0.000     0.000 .00000E+00 0.000E+00 0.000E+00 0.000E+00 0.000E+00 0.000E+00
BIGSUB    3        0    8.18344E+01    13.300     0.000    45.627    16.375    86.980     0.000     0.000     0.710     2.804     0.000     0.000     0.000     0.000     0.000     0.000     0.504     0.001     0.000 .00000E+00 0.000E+00 0.000E+00 0.000E+00 0.000E+00 0.000E+00
BIGSUB    1        0    9.17227E+01    15.700     0.000    36.765    15.202    87.170     0.000     0.018     0.016     4.787     0.025     0.000     0.000     0.000     0.000     0.000     0.738     0.001     0.000 .00000E+00 0.000E+00 0.000E+00 0.000E+00 0.000E+00 0.000E+00
BIGSUB    2        0    9.22328E+01    15.700     0.000    36.857    14.910    88.008     0.000     0.019     0.259     5.775     0.017     0.000     0.000     0.000     0.000     0.000     0.554     0.000     0.000 .00000E+00 0.000E+00 0.000E+00 0.000E+00 0.000E+00 0.000E+00
BIGSUB    3        0    9.18344E+01    15.700     0.000    36.883    15.164    86.731     0.000     0.017     0.218     2.141     0.022     0.000     0.000     0.000     0.000     0.000     0.734     0.001     0.000 .00000E+00 0.000E+00 0.000E+00 0.000E+00 0.000E+00 0.000E+00
BIGSUB    1        0   10.17227E+01    79.100     0.000    30.912    24.015   119.448     3.934    10.131     0.032    21.359    33.185     0.036     0.004     0.001     0.000     0.003     8.080     0.016     0.000 .00000E+00 0.000E+00 0.000E+00 0.000E+00 0.000E+00 0.000E+00
BIGSUB    2        0   10.22328E+01    79.100     0.000    30.986    24.063   119.461     6.296    10.276     0.077    20.755    21.694     0.075     0.009     0.001     0.000     0.007     6.477     0.015     0.000 .00000E+00 0.000E+00 0.000E+00 0.000E+00 0.000E+00 0.000E+00
BIGSUB    3        0   10.18344E+01    79.100     0.000    31.008    24.096   119.445     3.453    10.081     0.018    19.113    31.180     0.013     0.002     0.001     0.000     0.001     8.098     0.016     0.000 .00000E+00 0.000E+00 0.000E+00 0.000E+00 0.000E+00 0.000E+00
BIGSUB    1        0   11.17227E+01   122.500     0.000    14.895    14.819   120.027    47.063    36.319     0.367    57.450   141.340     0.109     0.013     0.001     0.000     0.010    18.308     0.078     0.000 .00000E+00 0.000E+00 0.000E+00 0.000E+00 0.000E+00 0.000E+00
BIGSUB    2        0   11.22328E+01   122.500     0.000    14.923    14.778   120.072    52.192    36.153     1.086    54.666    91.143     0.235     0.029     0.001     0.000     0.022    14.308     0.061     0.000 .00000E+00 0.000E+00 0.000E+00 0.000E+00 0.000E+00 0.000E+00
BIGSUB    3        0   11.18344E+01   122.500     0.000    14.931    14.843   120.008    46.958    36.494     0.498    56.090   133.319     0.040     0.005     0.001     0.000     0.004    18.381     0.078     0.000 .00000E+00 0.000E+00 0.000E+00 0.000E+00 0.000E+00 0.000E+00
BIGSUB    1        0   12.17227E+01   185.000     0.000    13.514    13.434   120.037    73.873    61.980    13.745   115.401   181.197     0.236     0.029     0.001     0.001     0.022    36.158     0.121     0.004 .00000E+00 0.000E+00 0.000E+00 0.000E+00 0.000E+00 0.000E+00
BIGSUB    2        0   12.22328E+01   185.000     0.000    13.513    13.411   120.098    81.750    62.081    19.321   113.623   116.811     0.480     0.059     0.001     0.001     0.045    28.204     0.093     0.004 .00000E+00 0.000E+00 0.000E+00 0.000E+00 0.000E+00 0.000E+00
BIGSUB    3        0   12.18344E+01   185.000     0.000    13.513    13.426   120.010    73.730    61.885    18.872   118.078   170.974     0.092     0.011     0.001     0.000     0.009    36.328     0.122     0.005 .00000E+00 0.000E+00 0.000E+00 0.000E+00 0.000E+00 0.000E+00
BIGSUB    1        0 1984.17227E+01  1470.600     0.000   409.801   279.707   120.037   467.235   482.270   294.726  1095.543  1403.060    31.482     3.854     0.006     0.006     3.074   240.939     0.548     0.093 .00000E+00 0.000E+00 0.000E+00 0.000E+00 0.000E+00 0.000E+00
BIGSUB    2        0 1984.22328E+01  1470.600     0.000   411.158   279.826   120.098   519.722   482.518   310.376  1066.907   904.972    32.082     3.930     0.006     0.009     3.123   188.065     0.416     0.092 .00000E+00 0.000E+00 0.000E+00 0.000E+00 0.000E+00 0.000E+00
BIGSUB    3        0 1984.18344E+01  1470.600     0.000   411.553   280.859   120.010   465.308   482.169   363.245  1109.149  1323.518    31.320     3.834     0.006     0.004     3.063   241.879     0.547     0.112 .00000E+00 0.000E+00 0.000E+00 0.000E+00 0.000E+00 0.000E+00
BIGSUB    1        0    1.17227E+01   162.300     0.000    13.058    13.058   120.061    74.199    38.973    39.567   119.642   120.472    24.649     3.017     0.000     0.001     2.391    35.851     0.088     0.012 .00000E+00 0.000E+00 0.000E+00 0.000E+00 0.000E+00 0.000E+00
BIGSUB    2        0    1.22328E+01   162.300     0.000    13.076    13.076   120.133    82.075    38.930    41.646   114.177    77.683    20.385     2.495     0.000     0.001     1.973    27.962     0.067     0.011 .00000E+00 0.000E+00 0.000E+00 0.000E+00 0.000E+00 0.000E+00
BIGSUB    3        0    1.18344E+01   162.300     0.000    13.081    13.081   120.026    74.029    39.007    45.367   121.847   113.643    24.725     3.026     0.000     0.001     2.398    36.013     0.089     0.013 .00000E+00 0.000E+00 0.000E+00 0.000E+00 0.000E+00 0.000E+00
BIGSUB    1        0    2.17227E+01   217.300     0.000    16.282    16.282   120.030    82.631    78.361    47.213   172.048   261.065     4.953     0.606     0.000     0.001     0.506    40.198     0.076     0.014 .00000E+00 0.000E+00 0.000E+00 0.000E+00 0.000E+00 0.000E+00
BIGSUB    2        0    2.22328E+01   217.300     0.000    16.331    16.331   120.064    91.439    78.490    48.944   165.404   168.272     7.618     0.933     0.000     0.002     0.760    31.346     0.057     0.013 .00000E+00 0.000E+00 0.000E+00 0.000E+00 0.000E+00 0.000E+00
BIGSUB    3        0    2.18344E+01   217.300     0.000    16.345    16.345   120.013    82.392    78.290    53.319   173.722   246.362     5.677     0.695     0.000     0.001     0.578    40.372     0.076     0.015 .00000E+00 0.000E+00 0.000E+00 0.000E+00 0.000E+00 0.000E+00
BIGSUB    1        0    3.17227E+01   192.100     0.000    34.423    31.992   120.072    69.156    55.584    60.209   159.312   145.324     0.210     0.026     0.001     0.000     0.023    34.916     0.052     0.015 .00000E+00 0.000E+00 0.000E+00 0.000E+00 0.000E+00 0.000E+00
BIGSUB    2        0    3.22328E+01   192.100     0.000    34.531    32.096   120.156    76.699    55.375    63.134   154.802    93.686     0.726     0.089     0.001     0.001     0.075    27.233     0.039     0.016 .00000E+00 0.000E+00 0.000E+00 0.000E+00 0.000E+00 0.000E+00
BIGSUB    3        0    3.18344E+01   192.100     0.000    34.563    32.163   120.030    68.892    55.730    68.099   161.259   137.113     0.150     0.018     0.001     0.000     0.019    35.042     0.052     0.018 .00000E+00 0.000E+00 0.000E+00 0.000E+00 0.000E+00 0.000E+00
BIGSUB    1        0    4.17227E+01    68.200     0.000    34.829    34.453   119.050    19.392     4.552    54.563    84.800    14.832     0.040     0.005     0.000     0.000     0.004    16.463     0.022     0.010 .00000E+00 0.000E+00 0.000E+00 0.000E+00 0.000E+00 0.000E+00
BIGSUB    2        0    4.22328E+01    68.200     0.000    34.960    34.577   119.122    21.758     4.824    59.063    86.546     9.562     0.085     0.010     0.000     0.000     0.008    12.840     0.017     0.011 .00000E+00 0.000E+00 0.000E+00 0.000E+00 0.000E+00 0.000E+00
BIGSUB    3        0    4.18344E+01    68.200     0.000    34.999    34.628   119.011    19.197     4.318    62.244    85.637    13.991     0.018     0.002     0.000     0.000     0.002    16.505     0.022     0.012 .00000E+00 0.000E+00 0.000E+00 0.000E+00 0.000E+00 0.000E+00
BIGSUB    1        0    5.17227E+01    23.500     0.000    47.410    31.983   109.095     0.000     0.339    28.086    38.840     1.067     0.001     0.000     0.000     0.000     0.000     1.531     0.001     0.003 .00000E+00 0.000E+00 0.000E+00 0.000E+00 0.000E+00 0.000E+00
BIGSUB    2        0    5.22328E+01    23.500     0.000    47.619    32.190   109.238     0.000     0.342    34.596    45.816     0.689     0.002     0.000     0.000     0.000     0.000     1.165     0.000     0.004 .00000E+00 0.000E+00 0.000E+00 0.000E+00 0.000E+00 0.000E+00
BIGSUB    3        0    5.18344E+01    23.500     0.000    47.680    32.207   108.839     0.000     0.335    36.699    41.057     1.001     0.000     0.000     0.000     0.000     0.000     1.527     0.001     0.004 .00000E+00 0.000E+00 0.000E+00 0.000E+00 0.000E+00 0.000E+00
BIGSUB    1        0    6.17227E+01    15.300     0.000    45.518    24.215    99.661     0.000     0.000     3.404    11.111     0.000     0.000     0.000     0.000     0.000     0.000     0.600     0.000     0.000 .00000E+00 0.000E+00 0.000E+00 0.000E+00 0.000E+00 0.000E+00
BIGSUB    2        0    6.22328E+01    15.300     0.000    45.731    24.399    99.746     0.000     0.000     9.155    17.644     0.000     0.000     0.000     0.000     0.000     0.000     0.453     0.000     0.001 .00000E+00 0.000E+00 0.000E+00 0.000E+00 0.000E+00 0.000E+00
BIGSUB    3        0    6.18344E+01    15.300     0.000    45.794    24.359    99.263     0.000     0.000     5.602     8.216     0.000     0.000     0.000     0.000     0.000     0.000     0.597     0.000     0.000 .00000E+00 0.000E+00 0.000E+00 0.000E+00 0.000E+00 0.000E+00
BIGSUB    1        0    7.17227E+01     7.500     0.000    44.489    16.183    90.954     0.000     0.000     1.058     6.872     0.000     0.000     0.000     0.000     0.000     0.000     0.058     0.000     0.000 .00000E+00 0.000E+00 0.000E+00 0.000E+00 0.000E+00 0.000E+00
BIGSUB    2        0    7.22328E+01     7.500     0.000    44.685    16.253    90.975     0.000     0.000     3.890    10.658     0.000     0.000     0.000     0.000     0.000     0.000     0.044     0.000     0.000 .00000E+00 0.000E+00 0.000E+00 0.000E+00 0.000E+00 0.000E+00
BIGSUB    3        0    7.18344E+01     7.500     0.000    44.742    16.278    90.462     0.000     0.000     1.934     3.643     0.000     0.000     0.000     0.000     0.000     0.000     0.057     0.000     0.000 .00000E+00 0.000E+00 0.000E+00 0.000E+00 0.000E+00 0.000E+00
BIGSUB    1        0    8.17227E+01    13.100     0.000    50.408    15.722    87.664     0.000     0.125     0.065     4.986     0.404     0.000     0.000     0.000     0.000     0.000     0.417     0.000     0.000 .00000E+00 0.000E+00 0.000E+00 0.000E+00 0.000E+00 0.000E+00
BIGSUB    2        0    8.22328E+01    13.100     0.000    50.605    15.510    88.030     0.000     0.126     0.240     5.952     0.260     0.001     0.000     0.000     0.000     0.000     0.315     0.000     0.000 .00000E+00 0.000E+00 0.000E+00 0.000E+00 0.000E+00 0.000E+00
BIGSUB    3        0    8.18344E+01    13.100     0.000    50.663    15.738    87.161     0.000     0.123     0.144     1.953     0.372     0.000     0.000     0.000     0.000     0.000     0.416     0.000     0.000 .00000E+00 0.000E+00 0.000E+00 0.000E+00 0.000E+00 0.000E+00
BIGSUB    1        0    9.17227E+01    28.200     0.000    42.310    20.861    93.161     0.000     0.068     0.004     4.909     0.225     0.000     0.000     0.000     0.000     0.000     1.642     0.001     0.000 .00000E+00 0.000E+00 0.000E+00 0.000E+00 0.000E+00 0.000E+00
BIGSUB    2        0    9.22328E+01    28.200     0.000    42.460    20.647    94.178     0.000     0.070     0.009     5.259     0.153     0.000     0.000     0.000     0.000     0.000     1.234     0.001     0.000 .00000E+00 0.000E+00 0.000E+00 0.000E+00 0.000E+00 0.000E+00
BIGSUB    3        0    9.18344E+01    28.200     0.000    42.504    20.848    92.681     0.000     0.066     0.004     2.637     0.206     0.000     0.000     0.000     0.000     0.000     1.633     0.001     0.000 .00000E+00 0.000E+00 0.000E+00 0.000E+00 0.000E+00 0.000E+00
BIGSUB    1        0   10.17227E+01    36.600     0.000    34.861    18.104   104.316     0.000     4.685     0.000     9.301    23.891     0.011     0.002     0.001     0.000     0.001     2.142     0.000     0.000 .00000E+00 0.000E+00 0.000E+00 0.000E+00 0.000E+00 0.000E+00
BIGSUB    2        0   10.22328E+01    36.600     0.000    34.939    18.406   105.609     0.000     4.688     0.000     9.425    15.579     0.035     0.004     0.001     0.000     0.004     1.616     0.000     0.000 .00000E+00 0.000E+00 0.000E+00 0.000E+00 0.000E+00 0.000E+00
BIGSUB    3        0   10.18344E+01    36.600     0.000    34.962    18.153   103.816     0.000     4.708     0.000     7.573    22.441     0.006     0.001     0.001     0.000     0.001     2.137     0.000     0.000 .00000E+00 0.000E+00 0.000E+00 0.000E+00 0.000E+00 0.000E+00
BIGSUB    1        0   11.17227E+01    60.700     0.000    23.734    20.159   119.995     2.960    15.381     0.028    23.880    51.701     0.053     0.007     0.003     0.000     0.005     6.673     0.019     0.000 .00000E+00 0.000E+00 0.000E+00 0.000E+00 0.000E+00 0.000E+00
BIGSUB    2        0   11.22328E+01    60.700     0.000    23.749    20.197   120.010     5.243    15.601     0.068    23.387    33.717     0.131     0.016     0.003     0.000     0.013     5.405     0.017     0.000 .00000E+00 0.000E+00 0.000E+00 0.000E+00 0.000E+00 0.000E+00
BIGSUB    3        0   11.18344E+01    60.700     0.000    23.753    20.213   119.991     2.448    15.277     0.013    22.512    48.649     0.024     0.003     0.003     0.000     0.002     6.690     0.019     0.000 .00000E+00 0.000E+00 0.000E+00 0.000E+00 0.000E+00 0.000E+00
BIGSUB    1        0   12.17227E+01   162.600     0.000    15.964    15.872   120.038    66.608    47.166     0.608    77.671    97.820     0.112     0.015     0.002     0.000     0.011    28.090     0.129     0.000 .00000E+00 0.000E+00 0.000E+00 0.000E+00 0.000E+00 0.000E+00
BIGSUB    2        0   12.22328E+01   162.600     0.000    15.966    15.843   120.133    73.718    46.987     1.413    72.577    63.031     0.255     0.031     0.002     0.001     0.025    21.932     0.100     0.000 .00000E+00 0.000E+00 0.000E+00 0.000E+00 0.000E+00 0.000E+00
BIGSUB    3        0   12.18344E+01   162.600     0.000    15.967    15.867   120.003    66.499    47.325     0.590    76.657    92.352     0.046     0.007     0.002     0.000     0.005    28.221     0.130     0.000 .00000E+00 0.000E+00 0.000E+00 0.000E+00 0.000E+00 0.000E+00
BIGSUB    1        0 1985.17227E+01   987.400     0.000   403.285   258.883   120.038   314.946   245.236   234.806   713.370   716.802    30.030     3.678     0.008     0.003     2.942   168.582     0.389     0.054 .00000E+00 0.000E+00 0.000E+00 0.000E+00 0.000E+00 0.000E+00
BIGSUB    2        0 1985.22328E+01   987.400     0.000   404.655   259.525   120.133   350.932   245.434   262.159   711.648   462.632    29.238     3.579     0.008     0.005     2.858   131.545     0.300     0.057 .00000E+00 0.000E+00 0.000E+00 0.000E+00 0.000E+00 0.000E+00
BIGSUB    3        0 1985.18344E+01   987.400     0.000   405.053   259.882   120.003   313.458   245.177   274.014   706.714   676.131    30.646     3.752     0.008     0.002     3.004   169.209     0.390     0.064 .00000E+00 0.000E+00 0.000E+00 0.000E+00 0.000E+00 0.000E+00
BIGSUB    1        0    1.17227E+01   296.100     0.000    14.584    14.584   120.037   116.158   109.383    19.289   185.874   340.555    29.400     3.598     0.001     0.003     2.873    53.736     0.163     0.007 .00000E+00 0.000E+00 0.000E+00 0.000E+00 0.000E+00 0.000E+00
BIGSUB    2        0    1.22328E+01   296.100     0.000    14.610    14.610   120.078   128.462   109.495    23.483   178.630   219.532    27.779     3.399     0.001     0.003     2.708    41.906     0.124     0.008 .00000E+00 0.000E+00 0.000E+00 0.000E+00 0.000E+00 0.000E+00
BIGSUB    3        0    1.18344E+01   296.100     0.000    14.618    14.618   120.015   115.878   109.368    25.633   189.944   321.352    30.186     3.694     0.001     0.002     2.950    53.980     0.163     0.010 .00000E+00 0.000E+00 0.000E+00 0.000E+00 0.000E+00 0.000E+00
BIGSUB    1        0    2.17227E+01   312.300     0.000    20.015    20.015   120.071   102.560   139.670    53.836   249.031   507.131     0.593     0.076     0.001     0.001     0.066    49.704     0.090     0.022 .00000E+00 0.000E+00 0.000E+00 0.000E+00 0.000E+00 0.000E+00
BIGSUB    2        0    2.22328E+01   312.300     0.000    20.078    20.078   120.155   113.400   139.565    54.769   239.072   326.918     1.606     0.197     0.001     0.002     0.166    38.756     0.067     0.021 .00000E+00 0.000E+00 0.000E+00 0.000E+00 0.000E+00 0.000E+00
BIGSUB    3        0    2.18344E+01   312.300     0.000    20.097    20.097   120.030   102.309   139.740    61.100   252.356   478.504     0.334     0.042     0.001     0.001     0.043    49.916     0.090     0.025 .00000E+00 0.000E+00 0.000E+00 0.000E+00 0.000E+00 0.000E+00
BIGSUB    1        0    3.17227E+01   182.800     0.000    31.817    30.980   116.632    77.445    39.892    75.600   167.740    93.731     0.155     0.020     0.000     0.000     0.015    43.030     0.056     0.025 .00000E+00 0.000E+00 0.000E+00 0.000E+00 0.000E+00 0.000E+00
BIGSUB    2        0    3.22328E+01   182.800     0.000    31.913    31.077   116.665    85.835    40.155    77.774   160.959    60.423     0.301     0.038     0.000     0.001     0.029    33.556     0.042     0.024 .00000E+00 0.000E+00 0.000E+00 0.000E+00 0.000E+00 0.000E+00
BIGSUB    3        0    3.18344E+01   182.800     0.000    31.941    31.123   116.604    77.152    39.640    85.193   170.572    88.445     0.063     0.008     0.000     0.000     0.006    43.200     0.056     0.028 .00000E+00 0.000E+00 0.000E+00 0.000E+00 0.000E+00 0.000E+00
BIGSUB    1        0    4.17227E+01   117.500     0.000    33.594    33.066   120.069    34.969    26.544    66.324   121.905   106.165     0.065     0.009     0.000     0.000     0.006    18.718     0.022     0.014 .00000E+00 0.000E+00 0.000E+00 0.000E+00 0.000E+00 0.000E+00
BIGSUB    2        0    4.22328E+01   117.500     0.000    33.716    33.185   120.151    38.994    26.280    71.167   122.859    68.447     0.138     0.018     0.000     0.000     0.013    14.606     0.017     0.016 .00000E+00 0.000E+00 0.000E+00 0.000E+00 0.000E+00 0.000E+00
BIGSUB    3        0    4.18344E+01   117.500     0.000    33.751    33.237   120.029    34.762    26.742    75.522   123.891   100.150     0.025     0.003     0.000     0.000     0.002    18.767     0.022     0.017 .00000E+00 0.000E+00 0.000E+00 0.000E+00 0.000E+00 0.000E+00
BIGSUB    1        0    5.17227E+01    35.300     0.000    55.390    35.603   110.115     4.859     1.465    44.906    63.158     1.959     0.025     0.003     0.000     0.000     0.002     6.544     0.009     0.006 .00000E+00 0.000E+00 0.000E+00 0.000E+00 0.000E+00 0.000E+00
BIGSUB    2        0    5.22328E+01    35.300     0.000    55.608    35.739   110.284     5.480     1.753    52.687    70.570     1.265     0.049     0.006     0.000     0.000     0.005     5.089     0.007     0.008 .00000E+00 0.000E+00 0.000E+00 0.000E+00 0.000E+00 0.000E+00
BIGSUB    3        0    5.18344E+01    35.300     0.000    55.671    35.856   109.882     4.797     1.242    54.229    64.898     1.843     0.010     0.001     0.000     0.000     0.001     6.562     0.009     0.007 .00000E+00 0.000E+00 0.000E+00 0.000E+00 0.000E+00 0.000E+00
BIGSUB    1        0    6.17227E+01    10.100     0.000    61.684    25.146    94.944     0.000     0.002     4.241    13.206     0.000     0.000     0.000     0.000     0.000     0.000     0.558     0.000     0.000 .00000E+00 0.000E+00 0.000E+00 0.000E+00 0.000E+00 0.000E+00
BIGSUB    2        0    6.22328E+01    10.100     0.000    61.952    25.322    94.967     0.000     0.003    10.443    20.245     0.000     0.000     0.000     0.000     0.000     0.000     0.423     0.000     0.001 .00000E+00 0.000E+00 0.000E+00 0.000E+00 0.000E+00 0.000E+00
BIGSUB    3        0    6.18344E+01    10.100     0.000    62.029    25.314    94.544     0.000     0.001     7.762    10.696     0.000     0.000     0.000     0.000     0.000     0.000     0.557     0.000     0.001 .00000E+00 0.000E+00 0.000E+00 0.000E+00 0.000E+00 0.000E+00
BIGSUB    1        0    7.17227E+01    16.800     0.000    54.340    21.572    89.667     0.000     0.000     1.533     8.872     0.000     0.000     0.000     0.000     0.000     0.000     0.457     0.000     0.000 .00000E+00 0.000E+00 0.000E+00 0.000E+00 0.000E+00 0.000E+00
BIGSUB    2        0    7.22328E+01    16.800     0.000    54.569    21.650    89.735     0.000     0.000     5.850    14.142     0.000     0.000     0.000     0.000     0.000     0.000     0.345     0.000     0.000 .00000E+00 0.000E+00 0.000E+00 0.000E+00 0.000E+00 0.000E+00
BIGSUB    3        0    7.18344E+01    16.800     0.000    54.635    21.702    89.140     0.000     0.000     3.307     5.730     0.000     0.000     0.000     0.000     0.000     0.000     0.455     0.000     0.000 .00000E+00 0.000E+00 0.000E+00 0.000E+00 0.000E+00 0.000E+00
BIGSUB    1        0    8.17227E+01    23.100     0.000    56.757    21.777    87.273     0.000     2.628     0.074     9.051    10.544     0.006     0.001     0.003     0.000     0.001     1.083     0.000     0.000 .00000E+00 0.000E+00 0.000E+00 0.000E+00 0.000E+00 0.000E+00
BIGSUB    2        0    8.22328E+01    23.100     0.000    56.950    21.147    88.224     0.000     2.646     0.201     9.936     6.856     0.014     0.002     0.003     0.000     0.001     0.814     0.000     0.000 .00000E+00 0.000E+00 0.000E+00 0.000E+00 0.000E+00 0.000E+00
BIGSUB    3        0    8.18344E+01    23.100     0.000    57.007    21.669    86.872     0.000     2.612     0.234     5.449     9.887     0.002     0.000     0.003     0.000     0.000     1.081     0.000     0.000 .00000E+00 0.000E+00 0.000E+00 0.000E+00 0.000E+00 0.000E+00
BIGSUB    1        0    9.17227E+01    25.000     0.000    38.333    19.385    91.100     0.000     0.366     0.007     5.613     0.857     0.001     0.000     0.000     0.000     0.000     1.386     0.000     0.000 .00000E+00 0.000E+00 0.000E+00 0.000E+00 0.000E+00 0.000E+00
BIGSUB    2        0    9.22328E+01    25.000     0.000    38.433    19.510    92.263     0.000     0.381     0.015     6.158     0.581     0.001     0.000     0.000     0.000     0.000     1.042     0.000     0.000 .00000E+00 0.000E+00 0.000E+00 0.000E+00 0.000E+00 0.000E+00
BIGSUB    3        0    9.18344E+01    25.000     0.000    38.462    19.437    90.659     0.000     0.360     0.008     2.873     0.796     0.000     0.000     0.000     0.000     0.000     1.381     0.000     0.000 .00000E+00 0.000E+00 0.000E+00 0.000E+00 0.000E+00 0.000E+00
BIGSUB    1        0   10.17227E+01    37.100     0.000    28.833    19.966   103.479     0.000     2.132     0.000     7.409    12.180     0.005     0.001     0.000     0.000     0.000     2.288     0.000     0.000 .00000E+00 0.000E+00 0.000E+00 0.000E+00 0.000E+00 0.000E+00
BIGSUB    2        0   10.22328E+01    37.100     0.000    28.915    20.411   104.805     0.000     2.168     0.001     7.633     8.011     0.011     0.001     0.000     0.000     0.001     1.719     0.000     0.000 .00000E+00 0.000E+00 0.000E+00 0.000E+00 0.000E+00 0.000E+00
BIGSUB    3        0   10.18344E+01    37.100     0.000    28.939    20.070   102.960     0.000     2.122     0.002     5.281    11.409     0.002     0.000     0.000     0.000     0.000     2.278     0.000     0.000 .00000E+00 0.000E+00 0.000E+00 0.000E+00 0.000E+00 0.000E+00
BIGSUB    1        0   11.17227E+01    61.500     0.000    21.577    20.012   118.132     6.824    11.857     0.133    22.631    27.576     0.031     0.004     0.001     0.000     0.003     8.428     0.026     0.000 .00000E+00 0.000E+00 0.000E+00 0.000E+00 0.000E+00 0.000E+00
BIGSUB    2        0   11.22328E+01    61.500     0.000    21.620    20.030   118.156     9.529    11.990     0.319    21.946    17.985     0.065     0.008     0.001     0.000     0.006     6.808     0.023     0.000 .00000E+00 0.000E+00 0.000E+00 0.000E+00 0.000E+00 0.000E+00
BIGSUB    3        0   11.18344E+01    61.500     0.000    21.632    20.075   118.122     6.279    11.806     0.095    20.999    25.953     0.012     0.001     0.001     0.000     0.001     8.446     0.026     0.000 .00000E+00 0.000E+00 0.000E+00 0.000E+00 0.000E+00 0.000E+00
BIGSUB    1        0   12.17227E+01   148.700     0.000    17.295    17.057   120.029    57.161    43.864     0.552    69.806   147.554     0.122     0.015     0.002     0.000     0.011    23.325     0.101     0.000 .00000E+00 0.000E+00 0.000E+00 0.000E+00 0.000E+00 0.000E+00
BIGSUB    2        0   12.22328E+01   148.700     0.000    17.288    17.013   120.109    63.394    43.768     1.487    66.061    95.117     0.254     0.032     0.002     0.000     0.024    18.212     0.078     0.000 .00000E+00 0.000E+00 0.000E+00 0.000E+00 0.000E+00 0.000E+00
BIGSUB    3        0   12.18344E+01   148.700     0.000    17.287    17.044   120.001    57.062    43.971     0.847    68.853   139.238     0.047     0.006     0.002     0.000     0.004    23.436     0.102     0.000 .00000E+00 0.000E+00 0.000E+00 0.000E+00 0.000E+00 0.000E+00
BIGSUB    1        0 1986.17227E+01  1266.300     0.000   434.219   279.164   120.029   399.978   377.804   266.497   924.295  1248.253    30.404     3.728     0.009     0.005     2.978   209.256     0.469     0.075 .00000E+00 0.000E+00 0.000E+00 0.000E+00 0.000E+00 0.000E+00
BIGSUB    2        0 1986.22328E+01  1266.300     0.000   435.652   279.772   120.109   445.093   378.204   298.195   918.211   805.136    30.218     3.702     0.009     0.007     2.953   163.277     0.360     0.078 .00000E+00 0.000E+00 0.000E+00 0.000E+00 0.000E+00 0.000E+00
BIGSUB    3        0 1986.18344E+01  1266.300     0.000   436.068   280.242   120.001   398.240   377.604   313.932   921.542  1177.577    30.681     3.757     0.009     0.003     3.009   210.056     0.469     0.088 .00000E+00 0.000E+00 0.000E+00 0.000E+00 0.000E+00 0.000E+00
BIGSUB    1        0    1.17227E+01   265.300     0.000    16.964    16.964   120.073   101.863    96.746    18.825   167.865   337.123    29.143     3.566     0.001     0.002     2.857    48.756     0.148     0.006 .00000E+00 0.000E+00 0.000E+00 0.000E+00 0.000E+00 0.000E+00
BIGSUB    2        0    1.22328E+01   265.300     0.000    16.988    16.988   120.160   112.659    96.494    24.634   163.041   217.367    27.353     3.347     0.001     0.003     2.673    38.025     0.113     0.007 .00000E+00 0.000E+00 0.000E+00 0.000E+00 0.000E+00 0.000E+00
BIGSUB    3        0    1.18344E+01   265.300     0.000    16.995    16.995   120.031   101.637    96.930    25.782   172.676   318.029    29.968     3.667     0.001     0.002     2.937    48.977     0.148     0.009 .00000E+00 0.000E+00 0.000E+00 0.000E+00 0.000E+00 0.000E+00
BIGSUB    1        0    2.17227E+01   224.900     0.000    18.763    18.763   120.053    74.030    96.278    48.922   188.710   237.574     0.410     0.051     0.000     0.001     0.045    37.959     0.074     0.018 .00000E+00 0.000E+00 0.000E+00 0.000E+00 0.000E+00 0.000E+00
BIGSUB    2        0    2.22328E+01   224.900     0.000    18.792    18.792   120.115    81.969    96.586    50.395   182.361   153.123     1.267     0.155     0.000     0.001     0.131    29.605     0.056     0.017 .00000E+00 0.000E+00 0.000E+00 0.000E+00 0.000E+00 0.000E+00
BIGSUB    3        0    2.18344E+01   224.900     0.000    18.801    18.801   120.023    73.836    96.047    55.815   191.520   224.230     0.266     0.033     0.000     0.001     0.033    38.126     0.074     0.021 .00000E+00 0.000E+00 0.000E+00 0.000E+00 0.000E+00 0.000E+00
BIGSUB    1        0    3.17227E+01    92.200     0.000    43.733    36.988   110.996    30.338    17.996    57.511   103.538    60.788     0.061     0.008     0.000     0.000     0.006    20.164     0.033     0.015 .00000E+00 0.000E+00 0.000E+00 0.000E+00 0.000E+00 0.000E+00
BIGSUB    2        0    3.22328E+01    92.200     0.000    43.812    37.092   111.069    33.768    18.115    60.373   102.426    39.206     0.132     0.016     0.000     0.000     0.014    15.724     0.025     0.016 .00000E+00 0.000E+00 0.000E+00 0.000E+00 0.000E+00 0.000E+00
BIGSUB    3        0    3.18344E+01    92.200     0.000    43.835    37.161   110.900    30.180    17.895    65.245   105.555    57.324     0.025     0.004     0.000     0.000     0.003    20.239     0.033     0.017 .00000E+00 0.000E+00 0.000E+00 0.000E+00 0.000E+00 0.000E+00
BIGSUB    1        0    4.17227E+01    34.800     0.000    39.936    29.201   107.493     0.033     7.312    36.873    53.637    46.449     0.021     0.003     0.001     0.000     0.002     1.885     0.000     0.005 .00000E+00 0.000E+00 0.000E+00 0.000E+00 0.000E+00 0.000E+00
BIGSUB    2        0    4.22328E+01    34.800     0.000    40.064    29.336   107.805     0.058     7.316    41.853    58.740    29.968     0.049     0.006     0.001     0.000     0.005     1.452     0.000     0.006 .00000E+00 0.000E+00 0.000E+00 0.000E+00 0.000E+00 0.000E+00
BIGSUB    3        0    4.18344E+01    34.800     0.000    40.102    29.374   107.251     0.012     7.307    43.424    54.727    43.774     0.008     0.001     0.001     0.000     0.001     1.885     0.000     0.006 .00000E+00 0.000E+00 0.000E+00 0.000E+00 0.000E+00 0.000E+00
BIGSUB    1        0    5.17227E+01    14.400     0.000    63.653    26.187    95.152     0.000     0.015     2.892    10.050     0.054     0.000     0.000     0.000     0.000     0.000     0.541     0.000     0.000 .00000E+00 0.000E+00 0.000E+00 0.000E+00 0.000E+00 0.000E+00
BIGSUB    2        0    5.22328E+01    14.400     0.000    63.899    26.344    95.438     0.000     0.015     7.603    15.374     0.036     0.000     0.000     0.000     0.000     0.000     0.409     0.000     0.001 .00000E+00 0.000E+00 0.000E+00 0.000E+00 0.000E+00 0.000E+00
BIGSUB    3        0    5.18344E+01    14.400     0.000    63.971    26.370    94.729     0.000     0.014     5.677     8.095     0.049     0.000     0.000     0.000     0.000     0.000     0.539     0.000     0.000 .00000E+00 0.000E+00 0.000E+00 0.000E+00 0.000E+00 0.000E+00
BIGSUB    1        0    6.17227E+01     8.300     0.000    56.917    16.280    87.117     0.000     0.000     0.462     5.566     0.000     0.000     0.000     0.000     0.000     0.000     0.048     0.000     0.000 .00000E+00 0.000E+00 0.000E+00 0.000E+00 0.000E+00 0.000E+00
BIGSUB    2        0    6.22328E+01     8.300     0.000    57.133    16.352    87.344     0.000     0.000     1.623     7.489     0.000     0.000     0.000     0.000     0.000     0.000     0.036     0.000     0.000 .00000E+00 0.000E+00 0.000E+00 0.000E+00 0.000E+00 0.000E+00
BIGSUB    3        0    6.18344E+01     8.300     0.000    57.195    16.405    86.570     0.000     0.000     1.045     2.537     0.000     0.000     0.000     0.000     0.000     0.000     0.047     0.000     0.000 .00000E+00 0.000E+00 0.000E+00 0.000E+00 0.000E+00 0.000E+00
BIGSUB    1        0    7.17227E+01    10.300     0.000    54.493    17.447    79.760     0.000     0.000     0.031     4.268     0.000     0.000     0.000     0.000     0.000     0.000     0.223     0.000     0.000 .00000E+00 0.000E+00 0.000E+00 0.000E+00 0.000E+00 0.000E+00
BIGSUB    2        0    7.22328E+01    10.300     0.000    54.697    16.652    80.838     0.000     0.000     0.214     5.155     0.000     0.000     0.000     0.000     0.000     0.000     0.164     0.000     0.000 .00000E+00 0.000E+00 0.000E+00 0.000E+00 0.000E+00 0.000E+00
BIGSUB    3        0    7.18344E+01    10.300     0.000    54.756    17.312    79.351     0.000     0.000     0.153     1.532     0.000     0.000     0.000     0.000     0.000     0.000     0.220     0.000     0.000 .00000E+00 0.000E+00 0.000E+00 0.000E+00 0.000E+00 0.000E+00
BIGSUB    1        0    8.17227E+01    14.900     0.000    64.332    17.857    76.168     0.000     0.000     0.000     3.604     0.000     0.000     0.000     0.000     0.000     0.000     0.582     0.001     0.000 .00000E+00 0.000E+00 0.000E+00 0.000E+00 0.000E+00 0.000E+00
BIGSUB    2        0    8.22328E+01    14.900     0.000    64.554    17.196    78.066     0.000     0.000     0.000     4.136     0.000     0.000     0.000     0.000     0.000     0.000     0.437     0.001     0.000 .00000E+00 0.000E+00 0.000E+00 0.000E+00 0.000E+00 0.000E+00
BIGSUB    3        0    8.18344E+01    14.900     0.000    64.619    17.746    75.875     0.000     0.000     0.000     1.460     0.000     0.000     0.000     0.000     0.000     0.000     0.579     0.001     0.000 .00000E+00 0.000E+00 0.000E+00 0.000E+00 0.000E+00 0.000E+00
BIGSUB    1        0    9.17227E+01    23.500     0.000    49.175    18.572    79.707     0.000     0.062     0.000     3.411     0.235     0.000     0.000     0.000     0.000     0.000     1.156     0.001     0.000 .00000E+00 0.000E+00 0.000E+00 0.000E+00 0.000E+00 0.000E+00
BIGSUB    2        0    9.22328E+01    23.500     0.000    49.322    18.154    82.337     0.000     0.074     0.000     3.692     0.192     0.000     0.000     0.000     0.000     0.000     0.870     0.001     0.000 .00000E+00 0.000E+00 0.000E+00 0.000E+00 0.000E+00 0.000E+00
BIGSUB    3        0    9.18344E+01    23.500     0.000    49.364    18.486    79.504     0.000     0.061     0.000     1.858     0.221     0.000     0.000     0.000     0.000     0.000     1.152     0.001     0.000 .00000E+00 0.000E+00 0.000E+00 0.000E+00 0.000E+00 0.000E+00
BIGSUB    1        0   10.17227E+01    34.400     0.000    28.013    18.713    90.740     0.000     2.179     0.000     6.489     5.244     0.004     0.001     0.001     0.000     0.000     2.618     0.000     0.000 .00000E+00 0.000E+00 0.000E+00 0.000E+00 0.000E+00 0.000E+00
BIGSUB    2        0   10.22328E+01    34.400     0.000    28.097    19.123    93.463     0.000     2.292     0.000     6.420     3.605     0.010     0.001     0.001     0.000     0.001     1.967     0.000     0.000 .00000E+00 0.000E+00 0.000E+00 0.000E+00 0.000E+00 0.000E+00
BIGSUB    3        0   10.18344E+01    34.400     0.000    28.121    18.785    90.481     0.000     2.170     0.000     5.282     4.943     0.002     0.000     0.001     0.000     0.000     2.611     0.000     0.000 .00000E+00 0.000E+00 0.000E+00 0.000E+00 0.000E+00 0.000E+00
BIGSUB    1        0   11.17227E+01    82.700     0.000    20.089    19.208   119.998    12.926     7.713     0.022    20.284    24.925     0.021     0.003     0.001     0.000     0.002    11.319     0.042     0.000 .00000E+00 0.000E+00 0.000E+00 0.000E+00 0.000E+00 0.000E+00
BIGSUB    2        0   11.22328E+01    82.700     0.000    20.098    19.321   120.014    17.915     7.951     0.053    18.750    16.659     0.045     0.005     0.001     0.000     0.004     9.145     0.037     0.000 .00000E+00 0.000E+00 0.000E+00 0.000E+00 0.000E+00 0.000E+00
BIGSUB    3        0   11.18344E+01    82.700     0.000    20.101    19.226   119.994    12.596     7.694     0.009    19.460    23.518     0.008     0.001     0.001     0.000     0.001    11.391     0.042     0.000 .00000E+00 0.000E+00 0.000E+00 0.000E+00 0.000E+00 0.000E+00
BIGSUB    1        0   12.17227E+01   113.700     0.000    14.491    14.356   119.945    54.454    18.231     0.968    48.297    51.605     0.045     0.006     0.001     0.000     0.004    27.407     0.128     0.000 .00000E+00 0.000E+00 0.000E+00 0.000E+00 0.000E+00 0.000E+00
BIGSUB    2        0   12.22328E+01   113.700     0.000    14.485    14.315   119.967    60.357    18.237     2.279    43.954    33.548     0.095     0.012     0.001     0.000     0.009    21.420     0.099     0.000 .00000E+00 0.000E+00 0.000E+00 0.000E+00 0.000E+00 0.000E+00
BIGSUB    3        0   12.18344E+01   113.700     0.000    14.483    14.339   119.944    54.342    18.226     0.989    47.231    48.815     0.018     0.003     0.001     0.000     0.002    27.535     0.129     0.000 .00000E+00 0.000E+00 0.000E+00 0.000E+00 0.000E+00 0.000E+00
BIGSUB    1        0 1987.17227E+01   919.400     0.000   470.559   250.535   119.945   273.644   246.532   166.507   615.719   763.997    29.705     3.638     0.005     0.004     2.917   152.659     0.429     0.045 .00000E+00 0.000E+00 0.000E+00 0.000E+00 0.000E+00 0.000E+00
BIGSUB    2        0 1987.22328E+01   919.400     0.000   471.941   249.665   119.967   306.726   247.081   189.028   611.537   493.705    28.950     3.542     0.005     0.005     2.837   119.255     0.333     0.048 .00000E+00 0.000E+00 0.000E+00 0.000E+00 0.000E+00 0.000E+00
BIGSUB    3        0 1987.18344E+01   919.400     0.000   472.343   250.999   119.944   272.603   246.344   198.139   611.933   720.902    30.296     3.709     0.005     0.003     2.977   153.301     0.430     0.054 .00000E+00 0.000E+00 0.000E+00 0.000E+00 0.000E+00 0.000E+00
BIGSUB    1        0    1.17227E+01   186.600     0.000    16.678    16.677   120.022    82.268    47.453     9.192    96.341   131.857    25.164     3.078     0.001     0.001     2.451    36.655     0.128     0.003 .00000E+00 0.000E+00 0.000E+00 0.000E+00 0.000E+00 0.000E+00
BIGSUB    2        0    1.22328E+01   186.600     0.000    16.705    16.704   120.046    91.028    47.442    13.705    93.038    85.571    21.225     2.596     0.001     0.002     2.063    28.590     0.097     0.004 .00000E+00 0.000E+00 0.000E+00 0.000E+00 0.000E+00 0.000E+00
BIGSUB    3        0    1.18344E+01   186.600     0.000    16.712    16.711   120.009    82.075    47.490    14.468    99.619   124.660    25.355     3.102     0.001     0.001     2.469    36.819     0.128     0.005 .00000E+00 0.000E+00 0.000E+00 0.000E+00 0.000E+00 0.000E+00
BIGSUB    1        0    2.17227E+01   190.600     0.000    25.867    25.544   120.004    56.064    80.895    40.334   158.613   328.568     4.010     0.491     0.001     0.001     0.413    32.480     0.078     0.016 .00000E+00 0.000E+00 0.000E+00 0.000E+00 0.000E+00 0.000E+00
BIGSUB    2        0    2.22328E+01   190.600     0.000    25.908    25.585   120.008    62.220    80.947    42.543   153.924   213.086     6.811     0.833     0.001     0.002     0.683    25.333     0.059     0.015 .00000E+00 0.000E+00 0.000E+00 0.000E+00 0.000E+00 0.000E+00
BIGSUB    3        0    2.18344E+01   190.600     0.000    25.919    25.602   120.002    55.888    80.835    47.161   161.967   310.275     4.616     0.565     0.001     0.001     0.474    32.622     0.078     0.018 .00000E+00 0.000E+00 0.000E+00 0.000E+00 0.000E+00 0.000E+00
BIGSUB    1        0    3.17227E+01   149.200     0.000    37.359    36.128   120.018    46.588    41.734    46.285   116.827   130.775     0.115     0.014     0.001     0.000     0.016    22.220     0.046     0.012 .00000E+00 0.000E+00 0.000E+00 0.000E+00 0.000E+00 0.000E+00
BIGSUB    2        0    3.22328E+01   149.200     0.000    37.482    36.249   120.036    51.832    41.614    49.302   115.168    84.632     0.276     0.034     0.001     0.000     0.032    17.341     0.035     0.013 .00000E+00 0.000E+00 0.000E+00 0.000E+00 0.000E+00 0.000E+00
BIGSUB    3        0    3.18344E+01   149.200     0.000    37.518    36.307   120.007    46.349    41.849    52.894   118.851   123.488     0.047     0.006     0.001     0.000     0.010    22.287     0.046     0.014 .00000E+00 0.000E+00 0.000E+00 0.000E+00 0.000E+00 0.000E+00
BIGSUB    1        0    4.17227E+01    87.100     0.000    39.897    37.758   118.368    23.433    14.237    39.052    76.111    39.996     0.048     0.006     0.000     0.000     0.005    15.974     0.031     0.008 .00000E+00 0.000E+00 0.000E+00 0.000E+00 0.000E+00 0.000E+00
BIGSUB    2        0    4.22328E+01    87.100     0.000    40.055    37.899   118.364    26.286    14.371    43.059    77.210    25.854     0.100     0.012     0.000     0.000     0.010    12.464     0.023     0.009 .00000E+00 0.000E+00 0.000E+00 0.000E+00 0.000E+00 0.000E+00
BIGSUB    3        0    4.18344E+01    87.100     0.000    40.101    37.988   118.355    23.191    14.112    44.824    76.844    37.772     0.019     0.002     0.000     0.000     0.002    16.003     0.031     0.009 .00000E+00 0.000E+00 0.000E+00 0.000E+00 0.000E+00 0.000E+00
BIGSUB    1        0    5.17227E+01    26.400     0.000    63.496    36.900   106.016     0.000     0.350    13.194    22.079     1.198     0.001     0.000     0.000     0.000     0.000     1.904     0.001     0.002 .00000E+00 0.000E+00 0.000E+00 0.000E+00 0.000E+00 0.000E+00
BIGSUB    2        0    5.22328E+01    26.400     0.000    63.745    37.089   106.186     0.000     0.351    18.851    27.937     0.774     0.001     0.000     0.000     0.000     0.000     1.459     0.001     0.002 .00000E+00 0.000E+00 0.000E+00 0.000E+00 0.000E+00 0.000E+00
BIGSUB    3        0    5.18344E+01    26.400     0.000    63.818    37.159   105.748     0.000     0.347    19.270    23.378     1.122     0.000     0.000     0.000     0.000     0.000     1.901     0.001     0.003 .00000E+00 0.000E+00 0.000E+00 0.000E+00 0.000E+00 0.000E+00
BIGSUB    1        0    6.17227E+01     6.400     0.000    58.195    18.951    93.398     0.000     0.001     1.078     6.703     0.000     0.000     0.000     0.000     0.000     0.000     0.297     0.000     0.000 .00000E+00 0.000E+00 0.000E+00 0.000E+00 0.000E+00 0.000E+00
BIGSUB    2        0    6.22328E+01     6.400     0.000    58.424    19.023    93.512     0.000     0.001     3.681     9.954     0.000     0.000     0.000     0.000     0.000     0.000     0.225     0.000     0.000 .00000E+00 0.000E+00 0.000E+00 0.000E+00 0.000E+00 0.000E+00
BIGSUB    3        0    6.18344E+01     6.400     0.000    58.491    19.082    92.999     0.000     0.000     2.014     3.821     0.000     0.000     0.000     0.000     0.000     0.000     0.296     0.000     0.000 .00000E+00 0.000E+00 0.000E+00 0.000E+00 0.000E+00 0.000E+00
BIGSUB    1        0    7.17227E+01     5.900     0.000    68.009    18.058    81.169     0.000     0.000     0.217     4.602     0.000     0.000     0.000     0.000     0.000     0.000     0.061     0.000     0.000 .00000E+00 0.000E+00 0.000E+00 0.000E+00 0.000E+00 0.000E+00
BIGSUB    2        0    7.22328E+01     5.900     0.000    68.225    17.177    82.182     0.000     0.000     0.526     5.643     0.000     0.000     0.000     0.000     0.000     0.000     0.046     0.000     0.000 .00000E+00 0.000E+00 0.000E+00 0.000E+00 0.000E+00 0.000E+00
BIGSUB    3        0    7.18344E+01     5.900     0.000    68.288    17.938    80.891     0.000     0.000     0.282     1.582     0.000     0.000     0.000     0.000     0.000     0.000     0.061     0.000     0.000 .00000E+00 0.000E+00 0.000E+00 0.000E+00 0.000E+00 0.000E+00
BIGSUB    1        0    8.17227E+01     9.600     0.000    55.020    12.852    77.562     0.000     0.000     0.012     3.626     0.000     0.000     0.000     0.000     0.000     0.000     0.321     0.001     0.000 .00000E+00 0.000E+00 0.000E+00 0.000E+00 0.000E+00 0.000E+00
[...]
BIGSUB    1        0    3.17227E+01   232.700     0.000    30.414    30.315   120.050    92.912    63.376    68.120   184.334   173.002     0.205     0.025     0.001     0.000     0.019    44.586     0.066     0.024 .00000E+00 0.000E+00 0.000E+00 0.000E+00 0.000E+00 0.000E+00
BIGSUB    2        0    3.22328E+01   232.700     0.000    30.531    30.432   120.108   102.849    63.325    70.406   176.988   111.534     0.420     0.053     0.001     0.001     0.040    34.766     0.049     0.023 .00000E+00 0.000E+00 0.000E+00 0.000E+00 0.000E+00 0.000E+00
BIGSUB    3        0    3.18344E+01   232.700     0.000    30.565    30.477   120.021    92.615    63.406    77.036   187.471   163.228     0.080     0.012     0.001     0.000     0.008    44.757     0.066     0.027 .00000E+00 0.000E+00 0.000E+00 0.000E+00 0.000E+00 0.000E+00
BIGSUB    1        0    4.17227E+01    60.000     0.000    42.890    38.615   117.180    11.173     5.426    62.921    90.820    12.442     0.019     0.002     0.000     0.000     0.002    12.978     0.015     0.015 .00000E+00 0.000E+00 0.000E+00 0.000E+00 0.000E+00 0.000E+00
BIGSUB    2        0    4.22328E+01    60.000     0.000    43.051    38.766   117.332    12.653     5.510    67.315    92.875     8.018     0.035     0.004     0.000     0.000     0.003    10.117     0.011     0.016 .00000E+00 0.000E+00 0.000E+00 0.000E+00 0.000E+00 0.000E+00
BIGSUB    3        0    4.18344E+01    60.000     0.000    43.098    38.853   117.102    10.989     5.343    71.605    92.579    11.742     0.008     0.001     0.000     0.000     0.001    13.000     0.015     0.018 .00000E+00 0.000E+00 0.000E+00 0.000E+00 0.000E+00 0.000E+00
BIGSUB    1        0    5.17227E+01    16.700     0.000    43.164    25.978   107.118     0.000     0.087    34.236    44.381     0.303     0.000     0.000     0.000     0.000     0.000     0.873     0.000     0.004 .00000E+00 0.000E+00 0.000E+00 0.000E+00 0.000E+00 0.000E+00
BIGSUB    2        0    5.22328E+01    16.700     0.000    43.363    26.095   107.321     0.000     0.087    42.127    52.815     0.196     0.000     0.000     0.000     0.000     0.000     0.666     0.000     0.006 .00000E+00 0.000E+00 0.000E+00 0.000E+00 0.000E+00 0.000E+00
BIGSUB    3        0    5.18344E+01    16.700     0.000    43.421    26.172   106.848     0.000     0.086    43.014    46.540     0.282     0.000     0.000     0.000     0.000     0.000     0.870     0.000     0.006 .00000E+00 0.000E+00 0.000E+00 0.000E+00 0.000E+00 0.000E+00
BIGSUB    1        0    6.17227E+01     9.300     0.000    55.012    21.427    94.858     0.000     0.000     3.028    10.622     0.000     0.000     0.000     0.000     0.000     0.000     0.249     0.000     0.000 .00000E+00 0.000E+00 0.000E+00 0.000E+00 0.000E+00 0.000E+00
BIGSUB    2        0    6.22328E+01     9.300     0.000    55.227    21.529    94.992     0.000     0.000     8.247    16.681     0.000     0.000     0.000     0.000     0.000     0.000     0.189     0.000     0.001 .00000E+00 0.000E+00 0.000E+00 0.000E+00 0.000E+00 0.000E+00
BIGSUB    3        0    6.18344E+01     9.300     0.000    55.290    21.573    94.442     0.000     0.000     5.347     7.675     0.000     0.000     0.000     0.000     0.000     0.000     0.248     0.000     0.000 .00000E+00 0.000E+00 0.000E+00 0.000E+00 0.000E+00 0.000E+00
BIGSUB    1        0    7.17227E+01     4.600     0.000    70.943    14.225    85.229     0.000     0.000     0.523     6.473     0.000     0.000     0.000     0.000     0.000     0.000     0.001     0.000     0.000 .00000E+00 0.000E+00 0.000E+00 0.000E+00 0.000E+00 0.000E+00
BIGSUB    2        0    7.22328E+01     4.600     0.000    71.157    14.269    85.319     0.000     0.000     1.995     8.913     0.000     0.000     0.000     0.000     0.000     0.000     0.001     0.000     0.000 .00000E+00 0.000E+00 0.000E+00 0.000E+00 0.000E+00 0.000E+00
BIGSUB    3        0    7.18344E+01     4.600     0.000    71.220    14.358    84.681     0.000     0.000     1.148     2.853     0.000     0.000     0.000     0.000     0.000     0.000     0.001     0.000     0.000 .00000E+00 0.000E+00 0.000E+00 0.000E+00 0.000E+00 0.000E+00
BIGSUB    1        0    8.17227E+01    10.900     0.000    50.694    17.098    78.888     0.000     0.000     0.039     4.712     0.000     0.000     0.000     0.000     0.000     0.000     0.146     0.000     0.000 .00000E+00 0.000E+00 0.000E+00 0.000E+00 0.000E+00 0.000E+00
BIGSUB    2        0    8.22328E+01    10.900     0.000    50.881    16.485    79.626     0.000     0.000     0.091     5.633     0.000     0.000     0.000     0.000     0.000     0.000     0.111     0.000     0.000 .00000E+00 0.000E+00 0.000E+00 0.000E+00 0.000E+00 0.000E+00
BIGSUB    3        0    8.18344E+01    10.900     0.000    50.936    17.006    78.432     0.000     0.000     0.034     1.490     0.000     0.000     0.000     0.000     0.000     0.000     0.145     0.000     0.000 .00000E+00 0.000E+00 0.000E+00 0.000E+00 0.000E+00 0.000E+00
BIGSUB    1        0    9.17227E+01    19.000     0.000    39.714    14.996    81.804     0.000     0.001     0.000     4.117     0.001     0.000     0.000     0.000     0.000     0.000     0.812     0.001     0.000 .00000E+00 0.000E+00 0.000E+00 0.000E+00 0.000E+00 0.000E+00
BIGSUB    2        0    9.22328E+01    19.000     0.000    39.816    14.396    83.412     0.000     0.001     0.000     4.681     0.002     0.000     0.000     0.000     0.000     0.000     0.609     0.001     0.000 .00000E+00 0.000E+00 0.000E+00 0.000E+00 0.000E+00 0.000E+00
BIGSUB    3        0    9.18344E+01    19.000     0.000    39.845    14.873    81.476     0.000     0.001     0.002     1.775     0.001     0.000     0.000     0.000     0.000     0.000     0.807     0.001     0.000 .00000E+00 0.000E+00 0.000E+00 0.000E+00 0.000E+00 0.000E+00
BIGSUB    1        0   10.17227E+01    71.100     0.000    28.208    24.493   117.147     0.436     3.006     0.001    12.551     9.606     0.007     0.001     0.001     0.000     0.001     6.986     0.008     0.000 .00000E+00 0.000E+00 0.000E+00 0.000E+00 0.000E+00 0.000E+00
BIGSUB    2        0   10.22328E+01    71.100     0.000    28.260    24.821   119.471     1.042     3.129     0.001    11.729     6.459     0.014     0.002     0.001     0.000     0.001     5.376     0.007     0.000 .00000E+00 0.000E+00 0.000E+00 0.000E+00 0.000E+00 0.000E+00
BIGSUB    3        0   10.18344E+01    71.100     0.000    28.275    24.583   116.999     0.178     2.991     0.003    10.739     9.037     0.002     0.000     0.001     0.000     0.000     6.992     0.008     0.000 .00000E+00 0.000E+00 0.000E+00 0.000E+00 0.000E+00 0.000E+00
BIGSUB    1        0   11.17227E+01    61.400     0.000    21.149    19.925   119.996    17.892    10.126     0.347    23.085    35.362     0.026     0.003     0.001     0.000     0.002    10.563     0.040     0.000 .00000E+00 0.000E+00 0.000E+00 0.000E+00 0.000E+00 0.000E+00
BIGSUB    2        0   11.22328E+01    61.400     0.000    21.163    19.879   120.017    22.245    10.179     0.823    22.127    22.877     0.053     0.007     0.001     0.000     0.005     8.524     0.034     0.000 .00000E+00 0.000E+00 0.000E+00 0.000E+00 0.000E+00 0.000E+00
BIGSUB    3        0   11.18344E+01    61.400     0.000    21.166    19.955   119.992    17.680    10.118     0.304    21.624    33.368     0.010     0.001     0.001     0.000     0.001    10.603     0.040     0.000 .00000E+00 0.000E+00 0.000E+00 0.000E+00 0.000E+00 0.000E+00
BIGSUB    1        0   12.17227E+01    38.400     0.000    28.431    21.331   117.523    10.013     3.043     0.578    12.605    12.969     0.007     0.001     0.001     0.000     0.001     6.993     0.026     0.000 .00000E+00 0.000E+00 0.000E+00 0.000E+00 0.000E+00 0.000E+00
BIGSUB    2        0   12.22328E+01    38.400     0.000    28.398    21.195   117.589    11.485     3.047     1.389    12.425     8.372     0.014     0.002     0.001     0.000     0.001     5.496     0.020     0.000 .00000E+00 0.000E+00 0.000E+00 0.000E+00 0.000E+00 0.000E+00
BIGSUB    3        0   12.18344E+01    38.400     0.000    28.389    21.359   117.513     9.956     3.042     0.595    11.240    12.232     0.003     0.000     0.001     0.000     0.000     7.029     0.026     0.000 .00000E+00 0.000E+00 0.000E+00 0.000E+00 0.000E+00 0.000E+00
BIGSUB    1        0 1989.17227E+01  1055.600     0.000   448.108   265.892   117.523   323.550   295.012   227.381   762.086  1006.527    29.538     3.612     0.006     0.004     2.908   176.944     0.410     0.068 .00000E+00 0.000E+00 0.000E+00 0.000E+00 0.000E+00 0.000E+00
BIGSUB    2        0 1989.22328E+01  1055.600     0.000   449.395   265.415   117.589   361.748   295.306   256.675   759.998   649.428    29.020     3.551     0.005     0.006     2.852   138.197     0.313     0.071 .00000E+00 0.000E+00 0.000E+00 0.000E+00 0.000E+00 0.000E+00
BIGSUB    3        0 1989.18344E+01  1055.600     0.000   449.769   266.773   117.513   322.080   294.906   269.725   759.942   949.379    30.004     3.673     0.006     0.003     2.958   177.626     0.410     0.081 .00000E+00 0.000E+00 0.000E+00 0.000E+00 0.000E+00 0.000E+00
BIGSUB    1        0    1.17227E+01   138.700     0.000    16.347    16.295   120.021    65.680    21.760     1.794    55.668    54.555    16.870     2.062     0.001     0.001     1.640    29.856     0.121     0.000 .00000E+00 0.000E+00 0.000E+00 0.000E+00 0.000E+00 0.000E+00
BIGSUB    2        0    1.22328E+01   138.700     0.000    16.372    16.320   120.046    72.814    21.765     6.000    53.738    35.187    13.060     1.597     0.001     0.001     1.268    23.304     0.093     0.001 .00000E+00 0.000E+00 0.000E+00 0.000E+00 0.000E+00 0.000E+00
BIGSUB    3        0    1.18344E+01   138.700     0.000    16.379    16.328   120.009    65.508    21.761     4.981    57.373    51.455    16.643     2.035     0.001     0.001     1.617    29.992     0.122     0.001 .00000E+00 0.000E+00 0.000E+00 0.000E+00 0.000E+00 0.000E+00
BIGSUB    1        0    2.17227E+01    73.200     0.000    19.244    17.382   120.013    27.378    14.130    17.347    49.328    55.744     5.549     0.678     0.001     0.000     0.551    14.765     0.048     0.004 .00000E+00 0.000E+00 0.000E+00 0.000E+00 0.000E+00 0.000E+00
BIGSUB    2        0    2.22328E+01    73.200     0.000    19.271    17.408   120.027    30.483    14.091    22.308    51.299    35.941     5.215     0.638     0.001     0.000     0.513    11.525     0.036     0.005 .00000E+00 0.000E+00 0.000E+00 0.000E+00 0.000E+00 0.000E+00
BIGSUB    3        0    2.18344E+01    73.200     0.000    19.279    17.445   120.006    27.257    14.169    23.348    53.201    52.581     5.774     0.706     0.001     0.000     0.572    14.825     0.048     0.006 .00000E+00 0.000E+00 0.000E+00 0.000E+00 0.000E+00 0.000E+00
BIGSUB    1        0    3.17227E+01    67.900     0.000    37.862    32.875   116.970    17.568    10.116    25.973    53.007    31.272     1.923     0.235     0.001     0.000     0.193    12.811     0.036     0.005 .00000E+00 0.000E+00 0.000E+00 0.000E+00 0.000E+00 0.000E+00
BIGSUB    2        0    3.22328E+01    67.900     0.000    37.955    32.955   117.060    19.713    10.165    28.728    53.334    20.163     2.118     0.259     0.001     0.000     0.210     9.999     0.028     0.005 .00000E+00 0.000E+00 0.000E+00 0.000E+00 0.000E+00 0.000E+00
BIGSUB    3        0    3.18344E+01    67.900     0.000    37.982    33.056   116.913    17.416    10.067    30.418    54.472    29.503     2.079     0.254     0.001     0.000     0.208    12.844     0.036     0.006 .00000E+00 0.000E+00 0.000E+00 0.000E+00 0.000E+00 0.000E+00
BIGSUB    1        0    4.17227E+01    49.800     0.000    45.497    34.977   108.864     9.080     7.578    14.510    32.682    36.750     1.447     0.177     0.001     0.000     0.147     6.579     0.016     0.002 .00000E+00 0.000E+00 0.000E+00 0.000E+00 0.000E+00 0.000E+00
BIGSUB    2        0    4.22328E+01    49.800     0.000    45.613    35.093   108.847    10.428     7.583    16.118    33.256    23.696     1.720     0.210     0.001     0.000     0.172     5.147     0.013     0.002 .00000E+00 0.000E+00 0.000E+00 0.000E+00 0.000E+00 0.000E+00
BIGSUB    3        0    4.18344E+01    49.800     0.000    45.646    35.185   108.766     8.911     7.575    17.473    32.752    34.664     1.598     0.195     0.001     0.000     0.161     6.582     0.016     0.002 .00000E+00 0.000E+00 0.000E+00 0.000E+00 0.000E+00 0.000E+00
BIGSUB    1        0    5.17227E+01    27.000     0.000    52.012    28.703   105.005     0.000     0.598     1.241     7.050     2.781     0.075     0.009     0.001     0.000     0.008     1.506     0.001     0.000 .00000E+00 0.000E+00 0.000E+00 0.000E+00 0.000E+00 0.000E+00
BIGSUB    2        0    5.22328E+01    27.000     0.000    52.214    28.878   105.190     0.000     0.599     3.895     9.811     1.795     0.100     0.012     0.001     0.000     0.010     1.144     0.001     0.000 .00000E+00 0.000E+00 0.000E+00 0.000E+00 0.000E+00 0.000E+00
BIGSUB    3        0    5.18344E+01    27.000     0.000    52.273    28.895   104.720     0.000     0.595     2.667     5.810     2.607     0.085     0.010     0.001     0.000     0.009     1.505     0.001     0.000 .00000E+00 0.000E+00 0.000E+00 0.000E+00 0.000E+00 0.000E+00
BIGSUB    1        0    6.17227E+01    21.500     0.000    41.392    22.064   103.129     0.000     0.237     0.338     4.460     1.029     0.028     0.003     0.000     0.000     0.003     0.970     0.000     0.000 .00000E+00 0.000E+00 0.000E+00 0.000E+00 0.000E+00 0.000E+00
BIGSUB    2        0    6.22328E+01    21.500     0.000    41.574    22.246   103.392     0.000     0.238     0.990     5.351     0.666     0.038     0.005     0.000     0.000     0.004     0.734     0.000     0.000 .00000E+00 0.000E+00 0.000E+00 0.000E+00 0.000E+00 0.000E+00
BIGSUB    3        0    6.18344E+01    21.500     0.000    41.627    22.194   102.721     0.000     0.234     0.494     2.524     0.958     0.031     0.004     0.000     0.000     0.003     0.967     0.000     0.000 .00000E+00 0.000E+00 0.000E+00 0.000E+00 0.000E+00 0.000E+00
BIGSUB    1        0    7.17227E+01     8.100     0.000    61.213    22.785    88.437     0.000     0.001     0.019     2.605     0.000     0.000     0.000     0.000     0.000     0.000     0.242     0.000     0.000 .00000E+00 0.000E+00 0.000E+00 0.000E+00 0.000E+00 0.000E+00
BIGSUB    2        0    7.22328E+01     8.100     0.000    61.459    22.222    89.267     0.000     0.001     0.046     3.037     0.000     0.000     0.000     0.000     0.000     0.000     0.182     0.000     0.000 .00000E+00 0.000E+00 0.000E+00 0.000E+00 0.000E+00 0.000E+00
BIGSUB    3        0    7.18344E+01     8.100     0.000    61.530    22.706    88.109     0.000     0.000     0.014     0.928     0.000     0.000     0.000     0.000     0.000     0.000     0.241     0.000     0.000 .00000E+00 0.000E+00 0.000E+00 0.000E+00 0.000E+00 0.000E+00
BIGSUB    1        0    8.17227E+01    12.100     0.000    45.403    15.555    84.554     0.000     0.000     0.000     2.125     0.000     0.000     0.000     0.000     0.000     0.000     0.349     0.001     0.000 .00000E+00 0.000E+00 0.000E+00 0.000E+00 0.000E+00 0.000E+00
BIGSUB    2        0    8.22328E+01    12.100     0.000    45.567    15.296    85.749     0.000     0.000     0.000     2.451     0.000     0.000     0.000     0.000     0.000     0.000     0.263     0.000     0.000 .00000E+00 0.000E+00 0.000E+00 0.000E+00 0.000E+00 0.000E+00
BIGSUB    3        0    8.18344E+01    12.100     0.000    45.615    15.544    84.239     0.000     0.000     0.000     0.863     0.000     0.000     0.000     0.000     0.000     0.000     0.348     0.001     0.000 .00000E+00 0.000E+00 0.000E+00 0.000E+00 0.000E+00 0.000E+00
BIGSUB    1        0    9.17227E+01    19.600     0.000    38.381    18.194    85.051     0.000     0.000     0.000     2.184     0.000     0.000     0.000     0.000     0.000     0.000     0.892     0.001     0.000 .00000E+00 0.000E+00 0.000E+00 0.000E+00 0.000E+00 0.000E+00
BIGSUB    2        0    9.22328E+01    19.600     0.000    38.515    18.287    86.382     0.000     0.000     0.000     2.298     0.000     0.000     0.000     0.000     0.000     0.000     0.667     0.001     0.000 .00000E+00 0.000E+00 0.000E+00 0.000E+00 0.000E+00 0.000E+00
BIGSUB    3        0    9.18344E+01    19.600     0.000    38.554    18.266    84.671     0.000     0.000     0.000     1.263     0.000     0.000     0.000     0.000     0.000     0.000     0.885     0.001     0.000 .00000E+00 0.000E+00 0.000E+00 0.000E+00 0.000E+00 0.000E+00
BIGSUB    1        0   10.17227E+01    58.400     0.000    29.687    21.094   113.914     0.231     2.104     0.000     8.243     6.455     0.227     0.028     0.000     0.000     0.023     5.139     0.007     0.000 .00000E+00 0.000E+00 0.000E+00 0.000E+00 0.000E+00 0.000E+00
BIGSUB    2        0   10.22328E+01    58.400     0.000    29.789    21.491   115.862     0.450     2.190     0.000     7.496     4.327     0.319     0.039     0.000     0.000     0.032     4.020     0.006     0.000 .00000E+00 0.000E+00 0.000E+00 0.000E+00 0.000E+00 0.000E+00
BIGSUB    3        0   10.18344E+01    58.400     0.000    29.819    21.226   113.544     0.081     2.082     0.000     7.540     6.039     0.257     0.031     0.000     0.000     0.026     5.164     0.007     0.000 .00000E+00 0.000E+00 0.000E+00 0.000E+00 0.000E+00 0.000E+00
BIGSUB    1        0   11.17227E+01     2.400     0.000     1.243     0.861   115.315     0.000     0.003     0.000     0.516     0.000     0.000     0.000     0.000     0.000     0.000     0.458     0.001     0.000 .00000E+00 0.000E+00 0.000E+00 0.000E+00 0.000E+00 0.000E+00
BIGSUB    2        0   11.22328E+01     2.400     0.000     1.249     0.868   117.289     0.000     0.003     0.000     0.434     0.000     0.000     0.000     0.000     0.000     0.000     0.360     0.001     0.000 .00000E+00 0.000E+00 0.000E+00 0.000E+00 0.000E+00 0.000E+00
BIGSUB    3        0   11.18344E+01     2.400     0.000     1.251     0.870   114.937     0.000     0.001     0.000     0.478     0.000     0.000     0.000     0.000     0.000     0.000     0.461     0.001     0.000 .00000E+00 0.000E+00 0.000E+00 0.000E+00 0.000E+00 0.000E+00
BIGSUB    1        0 1990.17227E+01   478.700     0.000   388.279   230.786   115.315   119.937    56.527    61.222   217.868   188.585    26.119     3.193     0.005     0.001     2.563    73.566     0.232     0.011 .00000E+00 0.000E+00 0.000E+00 0.000E+00 0.000E+00 0.000E+00
BIGSUB    2        0 1990.22328E+01   478.700     0.000   389.578   231.063   117.289   133.887    56.635    78.085   222.506   121.774    22.570     2.760     0.004     0.002     2.208    57.345     0.180     0.014 .00000E+00 0.000E+00 0.000E+00 0.000E+00 0.000E+00 0.000E+00
BIGSUB    3        0 1990.18344E+01   478.700     0.000   389.955   231.716   114.937   119.173    56.484    79.395   217.205   177.806    26.468     3.236     0.005     0.001     2.596    73.812     0.233     0.015 .00000E+00 0.000E+00 0.000E+00 0.000E+00 0.000E+00 0.000E+00
BIGSUB    1        0  9.5.17227E+01  1015.174     0.000   439.956   259.871   115.315   308.146   275.587   184.945   680.856   908.773    47.847     5.859     0.008     0.005     4.675   166.262     0.642     0.071 .00000E+00 0.000E+00 0.000E+00 0.000E+00 0.000E+00 0.000E+00
BIGSUB    2        0  9.5.22328E+01  1015.174     0.000   441.368   259.801   117.289   344.162   275.906   202.255   668.279   586.733    46.044     5.638     0.008     0.007     4.491   129.807     0.494     0.072 .00000E+00 0.000E+00 0.000E+00 0.000E+00 0.000E+00 0.000E+00
BIGSUB    3        0  9.5.18344E+01  1015.174     0.000   441.778   260.757   114.937   306.752   275.492   224.389   682.034   857.367    48.852     5.981     0.008     0.004     4.776   166.903     0.643     0.087 .00000E+00 0.000E+00 0.000E+00 0.000E+00 0.000E+00 0.000E+00
