1
    SWAT Nov 14  VER 2023/Rev 692                                                                        0/ 0/   0      0: 0: 0

    General Input/Output section (file.cio):                                        
    5/19/2025 12:00:00 AM ARCGIS-SWAT interface AV                                  
                                                                                    


LULC  HRU       GIS  SUB  MGT  MON   AREAkm2  PRECIPmm SNOFALLmm SNOMELTmm     IRRmm     PETmm      ETmm SW_INITmm  SW_ENDmm    PERCmm GW_RCHGmm DA_RCHGmm   REVAPmm  SA_IRRmm  DA_IRRmm   SA_STmm   DA_STmmSURQ_GENmmSURQ_CNTmm   TLOSSmm LATQGENmm    GW_Qmm    WYLDmm   DAILYCN TMP_AVdgC TMP_MXdgC TMP_MNdgCSOL_TMPdgCSOLARMJ/m2  SYLDt/ha  USLEt/haN_APPkg/haP_APPkg/haNAUTOkg/haPAUTOkg/ha NGRZkg/ha PGRZkg/haNCFRTkg/haPCFRTkg/haNRAINkg/ha NFIXkg/ha F-MNkg/ha A-MNkg/ha A-SNkg/ha F-MPkg/haAO-LPkg/ha L-APkg/ha A-SPkg/ha DNITkg/ha  NUPkg/ha  PUPkg/ha ORGNkg/ha ORGPkg/ha SEDPkg/haNSURQkg/haNLATQkg/ha NO3Lkg/haNO3GWkg/ha SOLPkg/ha P_GWkg/ha    W_STRS  TMP_STRS    N_STRS    P_STRS  BIOMt/ha       LAI   YLDt/ha  BACTPct   BACTLPct WTAB_CLIm WTAB_SOLm     SNOmm CMUPkg/haCMTOTkg/ha   QTILEmm TNO3kg/ha LNO3kg/ha  GW_Q_Dmm LATQCNTmm TVAPkg/ha
PJNL    1 000010001    1    0    4.13850E+01     3.100     0.000     0.000     0.000    19.115     6.662    21.205    61.851     0.000     0.000     0.000     2.860     0.000     0.000   997.140  2000.000     0.000     0.000     0.000     0.013     0.000     0.013    30.968     1.600     4.087    -0.887     3.643     4.669     0.000     0.000     0.000     0.000     0.000     0.000     0.000     0.000     0.000     0.000     0.000     0.000     0.000     0.251    -0.001     0.000     0.043     0.663     8.239     0.000     0.000     0.000     0.000     0.000     0.000     0.000     0.000     0.000     0.000     0.000     0.000     0.000     0.000     0.000     0.000     0.000     0.000     0.000 .00000E+00 .00000E+00 0.191E+01 0.429E+04 0.000E+00 0.000E+00 0.000E+00 0.000E+00 0.000E+00 0.234E-03     0.000     0.013     0.000
PJNL    2 000010002    1    0    4.33594E-01     3.100     0.000     0.000     0.000    19.115     6.665    21.207    61.865     0.000     0.000     0.000     2.860     0.000     0.000   997.140  2000.000     0.000     0.000     0.000     0.000     0.000     0.000    30.968     1.600     4.087    -0.887     3.643     4.669     0.000     0.000     0.000     0.000     0.000     0.000     0.000     0.000     0.000     0.000     0.000     0.000     0.000     0.251    -0.001     0.000     0.043     0.663     8.240     0.000     0.000     0.000     0.000     0.000     0.000     0.000     0.000     0.000     0.000     0.000     0.000     0.000     0.000     0.000     0.000     0.000     0.000     0.000 .00000E+00 .00000E+00 0.191E+01 0.429E+04 0.000E+00 0.000E+00 0.000E+00 0.000E+00 0.000E+00 0.000E+00     0.000     0.000     0.000
WETN    3 000010003    1    0    4.71719E-01     3.100     0.000     0.000     0.000    19.115     6.665    21.207    61.865     0.000     0.000     0.000     0.382     0.000     0.000   999.618  2000.000     0.000     0.000     0.000     0.000     0.000     0.000    30.968     1.600     4.087    -0.887     3.643     4.669     0.000     0.000     0.000     0.000     0.000     0.000     0.000     0.000     0.000     0.000     0.000     0.000     0.000     0.251    -0.001     0.000     0.043     0.663     8.240     0.000     0.000     0.000     0.000     0.000     0.000     0.000     0.000     0.000     0.000     0.000     0.000     0.000     0.000     0.000     0.000     0.000     0.000     0.000 .00000E+00 .00000E+00 0.191E+01 0.429E+04 0.000E+00 0.000E+00 0.000E+00 0.000E+00 0.000E+00 0.000E+00     0.000     0.000     0.000
BARR    4 000010004    1    0    4.22984E+00     3.100     0.000     0.000     0.000    19.115     6.662    21.204    61.849     0.000     0.000     0.000     3.779     0.000     0.000   996.221  2000.000     0.000     0.000     0.000     0.015     0.000     0.015    30.968     1.600     4.087    -0.887     3.643     4.669     0.000     0.000     0.000     0.000     0.000     0.000     0.000     0.000     0.000     0.000     0.000     0.000     0.000     0.251    -0.001     0.000     0.043     0.663     8.239     0.000     0.000     0.000     0.000     0.000     0.000     0.000     0.000     0.000     0.000     0.000     0.000     0.000     0.000     0.000     0.000     0.000     0.000     0.000 .00000E+00 .00000E+00 0.191E+01 0.429E+04 0.000E+00 0.000E+00 0.000E+00 0.000E+00 0.000E+00 0.261E-03     0.000     0.015     0.000
BARR    5 000010005    1    0    4.24999E-02     3.100     0.000     0.000     0.000    19.115     6.665    21.207    61.865     0.000     0.000     0.000     3.779     0.000     0.000   996.221  2000.000     0.000     0.000     0.000     0.000     0.000     0.000    30.968     1.600     4.087    -0.887     3.643     4.669     0.000     0.000     0.000     0.000     0.000     0.000     0.000     0.000     0.000     0.000     0.000     0.000     0.000     0.251    -0.001     0.000     0.043     0.663     8.240     0.000     0.000     0.000     0.000     0.000     0.000     0.000     0.000     0.000     0.000     0.000     0.000     0.000     0.000     0.000     0.000     0.000     0.000     0.000 .00000E+00 .00000E+00 0.191E+01 0.429E+04 0.000E+00 0.000E+00 0.000E+00 0.000E+00 0.000E+00 0.000E+00     0.000     0.000     0.000
WETN    6 000020001    2    0    4.22531E+00     3.100     0.000     0.000     0.000    19.157     6.673    21.205    61.857     0.000     0.000     0.000     0.383     0.000     0.000   999.617  2000.000     0.000     0.000     0.000     0.000     0.000     0.000    30.968     1.600     4.087    -0.887     3.643     4.669     0.000     0.000     0.000     0.000     0.000     0.000     0.000     0.000     0.000     0.000     0.000     0.000     0.000     0.251    -0.001     0.000     0.043     0.663     8.240     0.000     0.000     0.000     0.000     0.000     0.000     0.000     0.000     0.000     0.000     0.000     0.000     0.000     0.000     0.000     0.000     0.000     0.000     0.000 .00000E+00 .00000E+00 0.191E+01 0.429E+04 0.000E+00 0.000E+00 0.000E+00 0.000E+00 0.000E+00 0.000E+00     0.000     0.000     0.000
PJNL    7 000020002    2    0    4.90938E+00     3.100     0.000     0.000     0.000    19.157     6.672    21.204    61.846     0.000     0.000     0.000     2.866     0.000     0.000   997.134  2000.000     0.000     0.000     0.000     0.009     0.000     0.009    30.967     1.600     4.087    -0.887     3.643     4.669     0.000     0.000     0.000     0.000     0.000     0.000     0.000     0.000     0.000     0.000     0.000     0.000     0.000     0.251    -0.001     0.000     0.043     0.663     8.239     0.000     0.000     0.000     0.000     0.000     0.000     0.000     0.000     0.000     0.000     0.000     0.000     0.000     0.000     0.000     0.000     0.000     0.000     0.000 .00000E+00 .00000E+00 0.191E+01 0.429E+04 0.000E+00 0.000E+00 0.000E+00 0.000E+00 0.000E+00 0.167E-03     0.000     0.009     0.000
PJNL    8 000020003    2    0    4.27187E-01     3.100     0.000     0.000     0.000    19.157     6.673    21.205    61.857     0.000     0.000     0.000     2.866     0.000     0.000   997.134  2000.000     0.000     0.000     0.000     0.000     0.000     0.000    30.968     1.600     4.087    -0.887     3.643     4.669     0.000     0.000     0.000     0.000     0.000     0.000     0.000     0.000     0.000     0.000     0.000     0.000     0.000     0.251    -0.001     0.000     0.043     0.663     8.240     0.000     0.000     0.000     0.000     0.000     0.000     0.000     0.000     0.000     0.000     0.000     0.000     0.000     0.000     0.000     0.000     0.000     0.000     0.000 .00000E+00 .00000E+00 0.191E+01 0.429E+04 0.000E+00 0.000E+00 0.000E+00 0.000E+00 0.000E+00 0.000E+00     0.000     0.000     0.000
BARR    9 000020004    2    0    4.10641E+01     3.100     0.000     0.000     0.000    19.157     6.671    21.203    61.844     0.000     0.000     0.000     3.787     0.000     0.000   996.213  2000.000     0.000     0.000     0.000     0.012     0.000     0.012    30.967     1.600     4.087    -0.887     3.643     4.669     0.000     0.000     0.000     0.000     0.000     0.000     0.000     0.000     0.000     0.000     0.000     0.000     0.000     0.251    -0.001     0.000     0.043     0.663     8.239     0.000     0.000     0.000     0.000     0.000     0.000     0.000     0.000     0.000     0.000     0.000     0.000     0.000     0.000     0.000     0.000     0.000     0.000     0.000 .00000E+00 .00000E+00 0.191E+01 0.429E+04 0.000E+00 0.000E+00 0.000E+00 0.000E+00 0.000E+00 0.206E-03     0.000     0.012     0.000
BARR   10 000020005    2    0    4.68751E-02     3.100     0.000     0.000     0.000    19.157     6.673    21.205    61.857     0.000     0.000     0.000     3.787     0.000     0.000   996.213  2000.000     0.000     0.000     0.000     0.000     0.000     0.000    30.968     1.600     4.087    -0.887     3.643     4.669     0.000     0.000     0.000     0.000     0.000     0.000     0.000     0.000     0.000     0.000     0.000     0.000     0.000     0.251    -0.001     0.000     0.043     0.663     8.240     0.000     0.000     0.000     0.000     0.000     0.000     0.000     0.000     0.000     0.000     0.000     0.000     0.000     0.000     0.000     0.000     0.000     0.000     0.000 .00000E+00 .00000E+00 0.191E+01 0.429E+04 0.000E+00 0.000E+00 0.000E+00 0.000E+00 0.000E+00 0.000E+00     0.000     0.000     0.000
PJNL   11 000030001    3    0    4.12831E+01     3.100     0.000     0.000     0.000    19.169     6.708    21.197    61.806     0.000     0.000     0.000     2.868     0.000     0.000   997.132  2000.000     0.000     0.000     0.000     0.012     0.000     0.012    30.967     1.600     4.087    -0.887     3.643     4.669     0.000     0.000     0.000     0.000     0.000     0.000     0.000     0.000     0.000     0.000     0.000     0.000     0.000     0.251    -0.001     0.000     0.043     0.663     8.238     0.000     0.000     0.000     0.000     0.000     0.000     0.000     0.000     0.000     0.000     0.000     0.000     0.000     0.000     0.000     0.000     0.000     0.000     0.000 .00000E+00 .00000E+00 0.191E+01 0.429E+04 0.000E+00 0.000E+00 0.000E+00 0.000E+00 0.000E+00 0.220E-03     0.000     0.012     0.000
PJNL   12 000030002    3    0    4.19844E-01     3.100     0.000     0.000     0.000    19.169     6.711    21.199    61.820     0.000     0.000     0.000     2.868     0.000     0.000   997.132  2000.000     0.000     0.000     0.000     0.000     0.000     0.000    30.967     1.600     4.087    -0.887     3.643     4.669     0.000     0.000     0.000     0.000     0.000     0.000     0.000     0.000     0.000     0.000     0.000     0.000     0.000     0.251    -0.001     0.000     0.043     0.663     8.238     0.000     0.000     0.000     0.000     0.000     0.000     0.000     0.000     0.000     0.000     0.000     0.000     0.000     0.000     0.000     0.000     0.000     0.000     0.000 .00000E+00 .00000E+00 0.191E+01 0.429E+04 0.000E+00 0.000E+00 0.000E+00 0.000E+00 0.000E+00 0.000E+00     0.000     0.000     0.000
BARR   13 000030003    3    0    4.42609E+00     3.100     0.000     0.000     0.000    19.169     6.674    21.202    61.840     0.000     0.000     0.000     3.790     0.000     0.000   996.210  2000.000     0.000     0.000     0.000     0.013     0.000     0.013    30.967     1.600     4.087    -0.887     3.643     4.669     0.000     0.000     0.000     0.000     0.000     0.000     0.000     0.000     0.000     0.000     0.000     0.000     0.000     0.251    -0.001     0.000     0.043     0.663     8.239     0.000     0.000     0.000     0.000     0.000     0.000     0.000     0.000     0.000     0.000     0.000     0.000     0.000     0.000     0.000     0.000     0.000     0.000     0.000 .00000E+00 .00000E+00 0.191E+01 0.429E+04 0.000E+00 0.000E+00 0.000E+00 0.000E+00 0.000E+00 0.232E-03     0.000     0.013     0.000
BARR   14 000030004    3    0    4.29688E-02     3.100     0.000     0.000     0.000    19.169     6.676    21.205    61.854     0.000     0.000     0.000     3.790     0.000     0.000   996.210  2000.000     0.000     0.000     0.000     0.000     0.000     0.000    30.968     1.600     4.087    -0.887     3.643     4.669     0.000     0.000     0.000     0.000     0.000     0.000     0.000     0.000     0.000     0.000     0.000     0.000     0.000     0.251    -0.001     0.000     0.043     0.663     8.240     0.000     0.000     0.000     0.000     0.000     0.000     0.000     0.000     0.000     0.000     0.000     0.000     0.000     0.000     0.000     0.000     0.000     0.000     0.000 .00000E+00 .00000E+00 0.191E+01 0.429E+04 0.000E+00 0.000E+00 0.000E+00 0.000E+00 0.000E+00 0.000E+00     0.000     0.000     0.000
WETN   15 000030005    3    0    4.25625E-01     3.100     0.000     0.000     0.000    19.169     6.676    21.205    61.854     0.000     0.000     0.000     0.383     0.000     0.000   999.617  2000.000     0.000     0.000     0.000     0.000     0.000     0.000    30.968     1.600     4.087    -0.887     3.643     4.669     0.000     0.000     0.000     0.000     0.000     0.000     0.000     0.000     0.000     0.000     0.000     0.000     0.000     0.251    -0.001     0.000     0.043     0.663     8.240     0.000     0.000     0.000     0.000     0.000     0.000     0.000     0.000     0.000     0.000     0.000     0.000     0.000     0.000     0.000     0.000     0.000     0.000     0.000 .00000E+00 .00000E+00 0.191E+01 0.429E+04 0.000E+00 0.000E+00 0.000E+00 0.000E+00 0.000E+00 0.000E+00     0.000     0.000     0.000
ES10   16 000030006    3    0    4.33750E-01     3.100     0.000     0.000     0.000    19.169     6.674    21.203    61.842     0.000     0.000     0.000     0.383     0.000     0.000   999.617  2000.000     0.000     0.000     0.000     0.011     0.000     0.011    30.967     1.600     4.087    -0.887     3.643     4.669     0.000     0.000     0.000     0.000     0.000     0.000     0.000     0.000     0.000     0.000     0.000     0.000     0.000     0.251    -0.001     0.000     0.043     0.663     8.239     0.000     0.000     0.000     0.000     0.000     0.000     0.000     0.000     0.000     0.000     0.000     0.000     0.000     0.000     0.000     0.000     0.000     0.000     0.000 .00000E+00 .00000E+00 0.191E+01 0.429E+04 0.000E+00 0.000E+00 0.000E+00 0.000E+00 0.000E+00 0.202E-03     0.000     0.011     0.000
ES9    17 000030007    3    0    4.15625E-01     3.100     0.000     0.000     0.000    19.169     6.674    21.203    61.841     0.000     0.000     0.000     0.383     0.000     0.000   999.617  2000.000     0.000     0.000     0.000     0.012     0.000     0.012    30.967     1.600     4.087    -0.887     3.643     4.669     0.000     0.000     0.000     0.000     0.000     0.000     0.000     0.000     0.000     0.000     0.000     0.000     0.000     0.251    -0.001     0.000     0.043     0.663     8.239     0.000     0.000     0.000     0.000     0.000     0.000     0.000     0.000     0.000     0.000     0.000     0.000     0.000     0.000     0.000     0.000     0.000     0.000     0.000 .00000E+00 .00000E+00 0.191E+01 0.429E+04 0.000E+00 0.000E+00 0.000E+00 0.000E+00 0.000E+00 0.206E-03     0.000     0.012     0.000
ES9    18 000030008    3    0    4.31258E-03     3.100     0.000     0.000     0.000    19.169     6.676    21.205    61.854     0.000     0.000     0.000     0.383     0.000     0.000   999.617  2000.000     0.000     0.000     0.000     0.000     0.000     0.000    30.968     1.600     4.087    -0.887     3.643     4.669     0.000     0.000     0.000     0.000     0.000     0.000     0.000     0.000     0.000     0.000     0.000     0.000     0.000     0.251    -0.001     0.000     0.043     0.663     8.240     0.000     0.000     0.000     0.000     0.000     0.000     0.000     0.000     0.000     0.000     0.000     0.000     0.000     0.000     0.000     0.000     0.000     0.000     0.000 .00000E+00 .00000E+00 0.191E+01 0.429E+04 0.000E+00 0.000E+00 0.000E+00 0.000E+00 0.000E+00 0.000E+00     0.000     0.000     0.000
ES11   19 000030009    3    0    4.18281E-01     3.100     0.000     0.000     0.000    19.169     6.673    21.202    61.837     0.000     0.000     0.000     0.383     0.000     0.000   999.617  2000.000     0.000     0.000     0.000     0.016     0.000     0.016    30.967     1.600     4.087    -0.887     3.643     4.669     0.000     0.000     0.000     0.000     0.000     0.000     0.000     0.000     0.000     0.000     0.000     0.000     0.000     0.251    -0.001     0.000     0.043     0.663     8.239     0.000     0.000     0.000     0.000     0.000     0.000     0.000     0.000     0.000     0.000     0.000     0.000     0.000     0.000     0.000     0.000     0.000     0.000     0.000 .00000E+00 .00000E+00 0.191E+01 0.429E+04 0.000E+00 0.000E+00 0.000E+00 0.000E+00 0.000E+00 0.276E-03     0.000     0.016     0.000
ES12   20 000030010    3    0    4.68751E-02     3.100     0.000     0.000     0.000    19.169     6.673    21.201    61.833     0.000     0.000     0.000     0.383     0.000     0.000   999.617  2000.000     0.000     0.000     0.000     0.019     0.000     0.019    30.967     1.600     4.087    -0.887     3.643     4.669     0.000     0.000     0.000     0.000     0.000     0.000     0.000     0.000     0.000     0.000     0.000     0.000     0.000     0.251    -0.001     0.000     0.043     0.663     8.239     0.000     0.000     0.000     0.000     0.000     0.000     0.000     0.000     0.000     0.000     0.000     0.000     0.000     0.000     0.000     0.000     0.000     0.000     0.000 .00000E+00 .00000E+00 0.191E+01 0.429E+04 0.000E+00 0.000E+00 0.000E+00 0.000E+00 0.000E+00 0.333E-03     0.000     0.019     0.000
ES13   21 000030011    3    0    4.18749E-02     3.100     0.000     0.000     0.000    19.169     6.673    21.201    61.833     0.000     0.000     0.000     0.383     0.000     0.000   999.617  2000.000     0.000     0.000     0.000     0.019     0.000     0.019    30.967     1.600     4.087    -0.887     3.643     4.669     0.000     0.000     0.000     0.000     0.000     0.000     0.000     0.000     0.000     0.000     0.000     0.000     0.000     0.251    -0.001     0.000     0.043     0.663     8.239     0.000     0.000     0.000     0.000     0.000     0.000     0.000     0.000     0.000     0.000     0.000     0.000     0.000     0.000     0.000     0.000     0.000     0.000     0.000 .00000E+00 .00000E+00 0.191E+01 0.429E+04 0.000E+00 0.280E+04 0.176E+06 0.000E+00 0.000E+00 0.341E-03     0.000     0.019     0.000
PJNL    1 000010001    1    0    5.13850E+01    11.300     0.000     0.000     0.000    53.156    15.015    58.382    57.820     0.000     0.000     0.000     7.952     0.000     0.000   989.188  2000.000     0.000     0.000     0.000     0.236     0.000     0.236    92.452     5.565    13.971    -2.842     8.513    14.315     0.000     0.000     0.000     0.000     0.000     0.000     0.000     0.000     0.000     0.000     0.000     0.000     0.000     0.718    -0.009     0.000     0.123     2.844     9.198     0.000     0.000     0.000     0.000     0.000     0.000     0.000     0.006     0.000     0.000     0.000     0.000     0.000     0.000     0.000     0.000     0.000     0.000     0.000 .00000E+00 .00000E+00 0.248E+01 0.429E+04 0.000E+00 0.000E+00 0.000E+00 0.000E+00 0.000E+00 0.573E-02     0.000     0.236     0.000
PJNL    2 000010002    1    0    5.33594E-01    11.300     0.000     0.000     0.000    53.156    15.040    58.457    58.126     0.000     0.000     0.000     7.952     0.000     0.000   989.188  2000.000     0.000     0.000     0.000     0.000     0.000     0.000    92.458     5.565    13.971    -2.842     8.512    14.315     0.000     0.000     0.000     0.000     0.000     0.000     0.000     0.000     0.000     0.000     0.000     0.000     0.000     0.718    -0.009     0.000     0.123     2.845     9.202     0.000     0.000     0.000     0.000     0.000     0.000     0.000     0.000     0.000     0.000     0.000     0.000     0.000     0.000     0.000     0.000     0.000     0.000     0.000 .00000E+00 .00000E+00 0.248E+01 0.429E+04 0.000E+00 0.000E+00 0.000E+00 0.000E+00 0.000E+00 0.000E+00     0.000     0.000     0.000
WETN    3 000010003    1    0    5.71719E-01    11.300     0.000     0.000     0.000    53.156    15.040    58.457    58.126     0.000     0.000     0.000     1.063     0.000     0.000   998.555  2000.000     0.000     0.000     0.000     0.000     0.000     0.000    92.458     5.565    13.971    -2.842     8.512    14.315     0.000     0.000     0.000     0.000     0.000     0.000     0.000     0.000     0.000     0.000     0.000     0.000     0.000     0.718    -0.009     0.000     0.123     2.845     9.202     0.000     0.000     0.000     0.000     0.000     0.000     0.000     0.000     0.000     0.000     0.000     0.000     0.000     0.000     0.000     0.000     0.000     0.000     0.000 .00000E+00 .00000E+00 0.248E+01 0.429E+04 0.000E+00 0.000E+00 0.000E+00 0.000E+00 0.000E+00 0.000E+00     0.000     0.000     0.000
BARR    4 000010004    1    0    5.22984E+00    11.300     0.000     0.000     0.000    53.156    15.012    58.373    57.784     0.000     0.000     0.000    10.509     0.000     0.000   985.712  2000.000     0.000     0.000     0.000     0.264     0.000     0.264    92.451     5.565    13.971    -2.842     8.513    14.315     0.000     0.000     0.000     0.000     0.000     0.000     0.000     0.000     0.000     0.000     0.000     0.000     0.000     0.718    -0.009     0.000     0.123     2.844     9.197     0.000     0.000     0.000     0.000     0.000     0.000     0.000     0.006     0.000     0.000     0.000     0.000     0.000     0.000     0.000     0.000     0.000     0.000     0.000 .00000E+00 .00000E+00 0.248E+01 0.429E+04 0.000E+00 0.000E+00 0.000E+00 0.000E+00 0.000E+00 0.642E-02     0.000     0.264     0.000
BARR    5 000010005    1    0    5.24999E-02    11.300     0.000     0.000     0.000    53.156    15.040    58.457    58.126     0.000     0.000     0.000    10.509     0.000     0.000   985.712  2000.000     0.000     0.000     0.000     0.000     0.000     0.000    92.458     5.565    13.971    -2.842     8.512    14.315     0.000     0.000     0.000     0.000     0.000     0.000     0.000     0.000     0.000     0.000     0.000     0.000     0.000     0.718    -0.009     0.000     0.123     2.845     9.202     0.000     0.000     0.000     0.000     0.000     0.000     0.000     0.000     0.000     0.000     0.000     0.000     0.000     0.000     0.000     0.000     0.000     0.000     0.000 .00000E+00 .00000E+00 0.248E+01 0.429E+04 0.000E+00 0.000E+00 0.000E+00 0.000E+00 0.000E+00 0.000E+00     0.000     0.000     0.000
WETN    6 000020001    2    0    5.22531E+00    11.300     0.000     0.000     0.000    53.353    15.072    58.433    58.085     0.000     0.000     0.000     1.067     0.000     0.000   998.550  2000.000     0.000     0.000     0.000     0.000     0.000     0.000    92.456     5.565    13.971    -2.842     8.512    14.315     0.000     0.000     0.000     0.000     0.000     0.000     0.000     0.000     0.000     0.000     0.000     0.000     0.000     0.718    -0.009     0.000     0.123     2.845     9.201     0.000     0.000     0.000     0.000     0.000     0.000     0.000     0.000     0.000     0.000     0.000     0.000     0.000     0.000     0.000     0.000     0.000     0.000     0.000 .00000E+00 .00000E+00 0.248E+01 0.429E+04 0.000E+00 0.000E+00 0.000E+00 0.000E+00 0.000E+00 0.000E+00     0.000     0.000     0.000
PJNL    7 000020002    2    0    5.90938E+00    11.300     0.000     0.000     0.000    53.353    15.054    58.380    57.864     0.000     0.000     0.000     7.982     0.000     0.000   989.152  2000.000     0.000     0.000     0.000     0.171     0.000     0.171    92.451     5.565    13.971    -2.842     8.513    14.315     0.000     0.000     0.000     0.000     0.000     0.000     0.000     0.000     0.000     0.000     0.000     0.000     0.000     0.718    -0.009     0.000     0.123     2.844     9.198     0.000     0.000     0.000     0.000     0.000     0.000     0.000     0.004     0.000     0.000     0.000     0.000     0.000     0.000     0.000     0.000     0.000     0.000     0.000 .00000E+00 .00000E+00 0.248E+01 0.429E+04 0.000E+00 0.000E+00 0.000E+00 0.000E+00 0.000E+00 0.413E-02     0.000     0.171     0.000
PJNL    8 000020003    2    0    5.27187E-01    11.300     0.000     0.000     0.000    53.353    15.072    58.433    58.085     0.000     0.000     0.000     7.982     0.000     0.000   989.152  2000.000     0.000     0.000     0.000     0.000     0.000     0.000    92.456     5.565    13.971    -2.842     8.512    14.315     0.000     0.000     0.000     0.000     0.000     0.000     0.000     0.000     0.000     0.000     0.000     0.000     0.000     0.718    -0.009     0.000     0.123     2.845     9.201     0.000     0.000     0.000     0.000     0.000     0.000     0.000     0.000     0.000     0.000     0.000     0.000     0.000     0.000     0.000     0.000     0.000     0.000     0.000 .00000E+00 .00000E+00 0.248E+01 0.429E+04 0.000E+00 0.000E+00 0.000E+00 0.000E+00 0.000E+00 0.000E+00     0.000     0.000     0.000
BARR    9 000020004    2    0    5.10641E+01    11.300     0.000     0.000     0.000    53.353    15.050    58.367    57.812     0.000     0.000     0.000    10.548     0.000     0.000   985.665  2000.000     0.000     0.000     0.000     0.211     0.000     0.211    92.450     5.565    13.971    -2.842     8.514    14.315     0.000     0.000     0.000     0.000     0.000     0.000     0.000     0.000     0.000     0.000     0.000     0.000     0.000     0.718    -0.009     0.000     0.123     2.844     9.197     0.000     0.000     0.000     0.000     0.000     0.000     0.000     0.005     0.000     0.000     0.000     0.000     0.000     0.000     0.000     0.000     0.000     0.000     0.000 .00000E+00 .00000E+00 0.248E+01 0.429E+04 0.000E+00 0.000E+00 0.000E+00 0.000E+00 0.000E+00 0.513E-02     0.000     0.211     0.000
BARR   10 000020005    2    0    5.68751E-02    11.300     0.000     0.000     0.000    53.353    15.072    58.433    58.085     0.000     0.000     0.000    10.548     0.000     0.000   985.665  2000.000     0.000     0.000     0.000     0.000     0.000     0.000    92.456     5.565    13.971    -2.842     8.512    14.315     0.000     0.000     0.000     0.000     0.000     0.000     0.000     0.000     0.000     0.000     0.000     0.000     0.000     0.718    -0.009     0.000     0.123     2.845     9.201     0.000     0.000     0.000     0.000     0.000     0.000     0.000     0.000     0.000     0.000     0.000     0.000     0.000     0.000     0.000     0.000     0.000     0.000     0.000 .00000E+00 .00000E+00 0.248E+01 0.429E+04 0.000E+00 0.000E+00 0.000E+00 0.000E+00 0.000E+00 0.000E+00     0.000     0.000     0.000
PJNL   11 000030001    3    0    5.12831E+01    11.300     0.000     0.000     0.000    53.411    15.138    58.275    57.665     0.000     0.000     0.000     7.990     0.000     0.000   989.142  2000.000     0.000     0.000     0.000     0.226     0.000     0.226    92.442     5.565    13.971    -2.842     8.516    14.315     0.000     0.000     0.000     0.000     0.000     0.000     0.000     0.000     0.000     0.000     0.000     0.000     0.000     0.718    -0.009     0.000     0.123     2.841     9.191     0.000     0.000     0.000     0.000     0.000     0.000     0.000     0.006     0.000     0.000     0.000     0.000     0.000     0.000     0.000     0.000     0.000     0.000     0.000 .00000E+00 .00000E+00 0.248E+01 0.429E+04 0.000E+00 0.000E+00 0.000E+00 0.000E+00 0.000E+00 0.552E-02     0.000     0.226     0.000
PJNL   12 000030002    3    0    5.19844E-01    11.300     0.000     0.000     0.000    53.411    15.162    58.346    57.958     0.000     0.000     0.000     7.990     0.000     0.000   989.142  2000.000     0.000     0.000     0.000     0.000     0.000     0.000    92.448     5.565    13.971    -2.842     8.514    14.315     0.000     0.000     0.000     0.000     0.000     0.000     0.000     0.000     0.000     0.000     0.000     0.000     0.000     0.718    -0.009     0.000     0.123     2.842     9.195     0.000     0.000     0.000     0.000     0.000     0.000     0.000     0.000     0.000     0.000     0.000     0.000     0.000     0.000     0.000     0.000     0.000     0.000     0.000 .00000E+00 .00000E+00 0.248E+01 0.429E+04 0.000E+00 0.000E+00 0.000E+00 0.000E+00 0.000E+00 0.000E+00     0.000     0.000     0.000
BARR   13 000030003    3    0    5.42609E+00    11.300     0.000     0.000     0.000    53.411    15.057    58.352    57.765     0.000     0.000     0.000    10.559     0.000     0.000   985.651  2000.000     0.000     0.000     0.000     0.238     0.000     0.238    92.449     5.565    13.971    -2.842     8.514    14.315     0.000     0.000     0.000     0.000     0.000     0.000     0.000     0.000     0.000     0.000     0.000     0.000     0.000     0.718    -0.009     0.000     0.123     2.843     9.196     0.000     0.000     0.000     0.000     0.000     0.000     0.000     0.006     0.000     0.000     0.000     0.000     0.000     0.000     0.000     0.000     0.000     0.000     0.000 .00000E+00 .00000E+00 0.248E+01 0.429E+04 0.000E+00 0.000E+00 0.000E+00 0.000E+00 0.000E+00 0.581E-02     0.000     0.238     0.000
BARR   14 000030004    3    0    5.29688E-02    11.300     0.000     0.000     0.000    53.411    15.081    58.427    58.073     0.000     0.000     0.000    10.559     0.000     0.000   985.651  2000.000     0.000     0.000     0.000     0.000     0.000     0.000    92.456     5.565    13.971    -2.842     8.512    14.315     0.000     0.000     0.000     0.000     0.000     0.000     0.000     0.000     0.000     0.000     0.000     0.000     0.000     0.718    -0.009     0.000     0.123     2.845     9.201     0.000     0.000     0.000     0.000     0.000     0.000     0.000     0.000     0.000     0.000     0.000     0.000     0.000     0.000     0.000     0.000     0.000     0.000     0.000 .00000E+00 .00000E+00 0.248E+01 0.429E+04 0.000E+00 0.000E+00 0.000E+00 0.000E+00 0.000E+00 0.000E+00     0.000     0.000     0.000
WETN   15 000030005    3    0    5.25625E-01    11.300     0.000     0.000     0.000    53.411    15.081    58.427    58.073     0.000     0.000     0.000     1.068     0.000     0.000   998.548  2000.000     0.000     0.000     0.000     0.000     0.000     0.000    92.456     5.565    13.971    -2.842     8.512    14.315     0.000     0.000     0.000     0.000     0.000     0.000     0.000     0.000     0.000     0.000     0.000     0.000     0.000     0.718    -0.009     0.000     0.123     2.845     9.201     0.000     0.000     0.000     0.000     0.000     0.000     0.000     0.000     0.000     0.000     0.000     0.000     0.000     0.000     0.000     0.000     0.000     0.000     0.000 .00000E+00 .00000E+00 0.248E+01 0.429E+04 0.000E+00 0.000E+00 0.000E+00 0.000E+00 0.000E+00 0.000E+00     0.000     0.000     0.000
ES10   16 000030006    3    0    5.33750E-01    11.300     0.000     0.000     0.000    53.411    15.060    58.361    57.804     0.000     0.000     0.000     1.068     0.000     0.000   998.548  2000.000     0.000     0.000     0.000     0.208     0.000     0.208    92.450     5.565    13.971    -2.842     8.514    14.315     0.000     0.000     0.000     0.000     0.000     0.000     0.000     0.000     0.000     0.000     0.000     0.000     0.000     0.718    -0.009     0.000     0.123     2.843     9.197     0.000     0.000     0.000     0.000     0.000     0.000     0.000     0.005     0.000     0.000     0.000     0.000     0.000     0.000     0.000     0.000     0.000     0.000     0.000 .00000E+00 .00000E+00 0.248E+01 0.429E+04 0.000E+00 0.000E+00 0.000E+00 0.000E+00 0.000E+00 0.506E-02     0.000     0.208     0.000
ES9    17 000030007    3    0    5.15625E-01    11.300     0.000     0.000     0.000    53.411    15.060    58.360    57.800     0.000     0.000     0.000     1.068     0.000     0.000   998.548  2000.000     0.000     0.000     0.000     0.211     0.000     0.211    92.450     5.565    13.971    -2.842     8.514    14.315     0.000     0.000     0.000     0.000     0.000     0.000     0.000     0.000     0.000     0.000     0.000     0.000     0.000     0.718    -0.009     0.000     0.123     2.843     9.197     0.000     0.000     0.000     0.000     0.000     0.000     0.000     0.005     0.000     0.000     0.000     0.000     0.000     0.000     0.000     0.000     0.000     0.000     0.000 .00000E+00 .00000E+00 0.248E+01 0.429E+04 0.000E+00 0.000E+00 0.000E+00 0.000E+00 0.000E+00 0.514E-02     0.000     0.211     0.000
ES9    18 000030008    3    0    5.31258E-03    11.300     0.000     0.000     0.000    53.411    15.081    58.427    58.073     0.000     0.000     0.000     1.068     0.000     0.000   998.548  2000.000     0.000     0.000     0.000     0.000     0.000     0.000    92.456     5.565    13.971    -2.842     8.512    14.315     0.000     0.000     0.000     0.000     0.000     0.000     0.000     0.000     0.000     0.000     0.000     0.000     0.000     0.718    -0.009     0.000     0.123     2.845     9.201     0.000     0.000     0.000     0.000     0.000     0.000     0.000     0.000     0.000     0.000     0.000     0.000     0.000     0.000     0.000     0.000     0.000     0.000     0.000 .00000E+00 .00000E+00 0.248E+01 0.429E+04 0.000E+00 0.000E+00 0.000E+00 0.000E+00 0.000E+00 0.000E+00     0.000     0.000     0.000
ES11   19 000030009    3    0    5.18281E-01    11.300     0.000     0.000     0.000    53.411    15.052    58.337    57.705     0.000     0.000     0.000     1.068     0.000     0.000   998.548  2000.000     0.000     0.000     0.000     0.284     0.000     0.284    92.447     5.565    13.971    -2.842     8.514    14.315     0.000     0.000     0.000     0.000     0.000     0.000     0.000     0.000     0.000     0.000     0.000     0.000     0.000     0.718    -0.009     0.000     0.123     2.843     9.195     0.000     0.000     0.000     0.000     0.000     0.000     0.000     0.007     0.000     0.000     0.000     0.000     0.000     0.000     0.000     0.000     0.000     0.000     0.000 .00000E+00 .00000E+00 0.248E+01 0.429E+04 0.000E+00 0.000E+00 0.000E+00 0.000E+00 0.000E+00 0.695E-02     0.000     0.284     0.000
ES12   20 000030010    3    0    5.68751E-02    11.300     0.000     0.000     0.000    53.411    15.046    58.319    57.631     0.000     0.000     0.000     1.068     0.000     0.000   998.548  2000.000     0.000     0.000     0.000     0.342     0.000     0.342    92.446     5.565    13.971    -2.842     8.515    14.315     0.000     0.000     0.000     0.000     0.000     0.000     0.000     0.000     0.000     0.000     0.000     0.000     0.000     0.718    -0.009     0.000     0.123     2.842     9.194     0.000     0.000     0.000     0.000     0.000     0.000     0.000     0.008     0.000     0.000     0.000     0.000     0.000     0.000     0.000     0.000     0.000     0.000     0.000 .00000E+00 .00000E+00 0.248E+01 0.429E+04 0.000E+00 0.000E+00 0.000E+00 0.000E+00 0.000E+00 0.840E-02     0.000     0.342     0.000
ES13   21 000030011    3    0    5.18749E-02    11.300     0.000     0.000     0.000    53.411    15.045    58.316    57.619     0.000     0.000     0.000     1.068     0.000     0.000   998.548  2000.000     0.000     0.000     0.000     0.351     0.000     0.351    92.445     5.565    13.971    -2.842     8.515    14.315     0.000     0.000     0.000     0.000     0.000     0.000     0.000     0.000     0.000     0.000     0.000     0.000     0.000     0.718    -0.009     0.000     0.123     2.842     9.194     0.000     0.000     0.000     0.000     0.000     0.000     0.000     0.009     0.000     0.000     0.000     0.000     0.000     0.000     0.000     0.000     0.000     0.000     0.000 .00000E+00 .00000E+00 0.248E+01 0.429E+04 0.000E+00 0.280E+04 0.176E+06 0.000E+00 0.000E+00 0.864E-02     0.000     0.351     0.000
PJNL    1 000010001    1    0    6.13850E+01     8.000     0.000     0.000     0.000    59.726    13.271    54.776    52.336     0.000     0.000     0.000     8.935     0.000     0.000   980.253  2000.000     0.000     0.000     0.000     0.290     0.000     0.290    92.109     4.412    14.090    -5.267     8.442    17.466     0.000     0.000     0.000     0.000     0.000     0.000     0.000     0.000     0.000     0.000     0.000     0.000     0.000     0.681    -0.019     0.000     0.117     1.400     3.344     0.000     0.000     0.000     0.000     0.000     0.000     0.000     0.006     0.000     0.000     0.000     0.000     0.000     0.000     0.000     0.000     0.000     0.000     0.000 .00000E+00 .00000E+00 0.250E+01 0.429E+04 0.000E+00 0.000E+00 0.000E+00 0.000E+00 0.000E+00 0.565E-02     0.000     0.290     0.000
PJNL    2 000010002    1    0    6.33594E-01     8.000     0.000     0.000     0.000    59.726    13.413    55.111    52.713     0.000     0.000     0.000     8.935     0.000     0.000   980.253  2000.000     0.000     0.000     0.000     0.000     0.000     0.000    92.142     4.412    14.090    -5.267     8.433    17.466     0.000     0.000     0.000     0.000     0.000     0.000     0.000     0.000     0.000     0.000     0.000     0.000     0.000     0.682    -0.019     0.000     0.117     1.404     3.353     0.000     0.000     0.000     0.000     0.000     0.000     0.000     0.000     0.000     0.000     0.000     0.000     0.000     0.000     0.000     0.000     0.000     0.000     0.000 .00000E+00 .00000E+00 0.250E+01 0.429E+04 0.000E+00 0.000E+00 0.000E+00 0.000E+00 0.000E+00 0.000E+00     0.000     0.000     0.000
WETN    3 000010003    1    0    6.71719E-01     8.000     0.000     0.000     0.000    59.726    13.413    55.111    52.713     0.000     0.000     0.000     1.195     0.000     0.000   997.360  2000.000     0.000     0.000     0.000     0.000     0.000     0.000    92.142     4.412    14.090    -5.267     8.433    17.466     0.000     0.000     0.000     0.000     0.000     0.000     0.000     0.000     0.000     0.000     0.000     0.000     0.000     0.682    -0.019     0.000     0.117     1.404     3.353     0.000     0.000     0.000     0.000     0.000     0.000     0.000     0.000     0.000     0.000     0.000     0.000     0.000     0.000     0.000     0.000     0.000     0.000     0.000 .00000E+00 .00000E+00 0.250E+01 0.429E+04 0.000E+00 0.000E+00 0.000E+00 0.000E+00 0.000E+00 0.000E+00     0.000     0.000     0.000
BARR    4 000010004    1    0    6.22984E+00     8.000     0.000     0.000     0.000    59.726    13.254    54.736    52.292     0.000     0.000     0.000    11.808     0.000     0.000   973.904  2000.000     0.000     0.000     0.000     0.324     0.000     0.324    92.105     4.412    14.090    -5.267     8.443    17.466     0.000     0.000     0.000     0.000     0.000     0.000     0.000     0.000     0.000     0.000     0.000     0.000     0.000     0.680    -0.019     0.000     0.117     1.400     3.343     0.000     0.000     0.000     0.000     0.000     0.000     0.000     0.006     0.000     0.000     0.000     0.000     0.000     0.000     0.000     0.000     0.000     0.000     0.000 .00000E+00 .00000E+00 0.250E+01 0.429E+04 0.000E+00 0.000E+00 0.000E+00 0.000E+00 0.000E+00 0.635E-02     0.000     0.324     0.000
BARR    5 000010005    1    0    6.24999E-02     8.000     0.000     0.000     0.000    59.726    13.413    55.111    52.713     0.000     0.000     0.000    11.808     0.000     0.000   973.904  2000.000     0.000     0.000     0.000     0.000     0.000     0.000    92.142     4.412    14.090    -5.267     8.433    17.466     0.000     0.000     0.000     0.000     0.000     0.000     0.000     0.000     0.000     0.000     0.000     0.000     0.000     0.682    -0.019     0.000     0.117     1.404     3.353     0.000     0.000     0.000     0.000     0.000     0.000     0.000     0.000     0.000     0.000     0.000     0.000     0.000     0.000     0.000     0.000     0.000     0.000     0.000 .00000E+00 .00000E+00 0.250E+01 0.429E+04 0.000E+00 0.000E+00 0.000E+00 0.000E+00 0.000E+00 0.000E+00     0.000     0.000     0.000
WETN    6 000020001    2    0    6.22531E+00     8.000     0.000     0.000     0.000    59.979    13.426    55.063    52.658     0.000     0.000     0.000     1.200     0.000     0.000   997.350  2000.000     0.000     0.000     0.000     0.000     0.000     0.000    92.138     4.412    14.090    -5.267     8.434    17.466     0.000     0.000     0.000     0.000     0.000     0.000     0.000     0.000     0.000     0.000     0.000     0.000     0.000     0.682    -0.019     0.000     0.117     1.404     3.352     0.000     0.000     0.000     0.000     0.000     0.000     0.000     0.000     0.000     0.000     0.000     0.000     0.000     0.000     0.000     0.000     0.000     0.000     0.000 .00000E+00 .00000E+00 0.250E+01 0.429E+04 0.000E+00 0.000E+00 0.000E+00 0.000E+00 0.000E+00 0.000E+00     0.000     0.000     0.000
PJNL    7 000020002    2    0    6.90938E+00     8.000     0.000     0.000     0.000    59.979    13.323    54.821    52.387     0.000     0.000     0.000     8.973     0.000     0.000   980.180  2000.000     0.000     0.000     0.000     0.210     0.000     0.210    92.114     4.412    14.090    -5.267     8.441    17.466     0.000     0.000     0.000     0.000     0.000     0.000     0.000     0.000     0.000     0.000     0.000     0.000     0.000     0.681    -0.019     0.000     0.117     1.401     3.346     0.000     0.000     0.000     0.000     0.000     0.000     0.000     0.004     0.000     0.000     0.000     0.000     0.000     0.000     0.000     0.000     0.000     0.000     0.000 .00000E+00 .00000E+00 0.250E+01 0.429E+04 0.000E+00 0.000E+00 0.000E+00 0.000E+00 0.000E+00 0.403E-02     0.000     0.210     0.000
PJNL    8 000020003    2    0    6.27187E-01     8.000     0.000     0.000     0.000    59.979    13.426    55.063    52.658     0.000     0.000     0.000     8.973     0.000     0.000   980.180  2000.000     0.000     0.000     0.000     0.000     0.000     0.000    92.138     4.412    14.090    -5.267     8.434    17.466     0.000     0.000     0.000     0.000     0.000     0.000     0.000     0.000     0.000     0.000     0.000     0.000     0.000     0.682    -0.019     0.000     0.117     1.404     3.352     0.000     0.000     0.000     0.000     0.000     0.000     0.000     0.000     0.000     0.000     0.000     0.000     0.000     0.000     0.000     0.000     0.000     0.000     0.000 .00000E+00 .00000E+00 0.250E+01 0.429E+04 0.000E+00 0.000E+00 0.000E+00 0.000E+00 0.000E+00 0.000E+00     0.000     0.000     0.000
BARR    9 000020004    2    0    6.10641E+01     8.000     0.000     0.000     0.000    59.979    13.299    54.764    52.322     0.000     0.000     0.000    11.858     0.000     0.000   973.807  2000.000     0.000     0.000     0.000     0.259     0.000     0.259    92.108     4.412    14.090    -5.267     8.442    17.466     0.000     0.000     0.000     0.000     0.000     0.000     0.000     0.000     0.000     0.000     0.000     0.000     0.000     0.681    -0.019     0.000     0.117     1.400     3.344     0.000     0.000     0.000     0.000     0.000     0.000     0.000     0.005     0.000     0.000     0.000     0.000     0.000     0.000     0.000     0.000     0.000     0.000     0.000 .00000E+00 .00000E+00 0.250E+01 0.429E+04 0.000E+00 0.000E+00 0.000E+00 0.000E+00 0.000E+00 0.504E-02     0.000     0.259     0.000
BARR   10 000020005    2    0    6.68751E-02     8.000     0.000     0.000     0.000    59.979    13.426    55.063    52.658     0.000     0.000     0.000    11.858     0.000     0.000   973.807  2000.000     0.000     0.000     0.000     0.000     0.000     0.000    92.138     4.412    14.090    -5.267     8.434    17.466     0.000     0.000     0.000     0.000     0.000     0.000     0.000     0.000     0.000     0.000     0.000     0.000     0.000     0.682    -0.019     0.000     0.117     1.404     3.352     0.000     0.000     0.000     0.000     0.000     0.000     0.000     0.000     0.000     0.000     0.000     0.000     0.000     0.000     0.000     0.000     0.000     0.000     0.000 .00000E+00 .00000E+00 0.250E+01 0.429E+04 0.000E+00 0.000E+00 0.000E+00 0.000E+00 0.000E+00 0.000E+00     0.000     0.000     0.000
PJNL   11 000030001    3    0    6.12831E+01     8.000     0.000     0.000     0.000    60.052    13.372    54.574    52.089     0.000     0.000     0.000     8.984     0.000     0.000   980.158  2000.000     0.000     0.000     0.000     0.278     0.000     0.278    92.089     4.412    14.090    -5.267     8.447    17.466     0.000     0.000     0.000     0.000     0.000     0.000     0.000     0.000     0.000     0.000     0.000     0.000     0.000     0.680    -0.019     0.000     0.117     1.399     3.342     0.000     0.000     0.000     0.000     0.000     0.000     0.000     0.005     0.000     0.000     0.000     0.000     0.000     0.000     0.000     0.000     0.000     0.000     0.000 .00000E+00 .00000E+00 0.250E+01 0.429E+04 0.000E+00 0.000E+00 0.000E+00 0.000E+00 0.000E+00 0.546E-02     0.000     0.278     0.000
PJNL   12 000030002    3    0    6.19844E-01     8.000     0.000     0.000     0.000    60.052    13.509    54.895    52.449     0.000     0.000     0.000     8.984     0.000     0.000   980.158  2000.000     0.000     0.000     0.000     0.000     0.000     0.000    92.121     4.412    14.090    -5.267     8.439    17.466     0.000     0.000     0.000     0.000     0.000     0.000     0.000     0.000     0.000     0.000     0.000     0.000     0.000     0.682    -0.019     0.000     0.117     1.403     3.351     0.000     0.000     0.000     0.000     0.000     0.000     0.000     0.000     0.000     0.000     0.000     0.000     0.000     0.000     0.000     0.000     0.000     0.000     0.000 .00000E+00 .00000E+00 0.250E+01 0.429E+04 0.000E+00 0.000E+00 0.000E+00 0.000E+00 0.000E+00 0.000E+00     0.000     0.000     0.000
BARR   13 000030003    3    0    6.42609E+00     8.000     0.000     0.000     0.000    60.052    13.287    54.711    52.263     0.000     0.000     0.000    11.872     0.000     0.000   973.779  2000.000     0.000     0.000     0.000     0.293     0.000     0.293    92.103     4.412    14.090    -5.267     8.444    17.466     0.000     0.000     0.000     0.000     0.000     0.000     0.000     0.000     0.000     0.000     0.000     0.000     0.000     0.680    -0.019     0.000     0.117     1.400     3.343     0.000     0.000     0.000     0.000     0.000     0.000     0.000     0.006     0.000     0.000     0.000     0.000     0.000     0.000     0.000     0.000     0.000     0.000     0.000 .00000E+00 .00000E+00 0.250E+01 0.429E+04 0.000E+00 0.000E+00 0.000E+00 0.000E+00 0.000E+00 0.574E-02     0.000     0.293     0.000
BARR   14 000030004    3    0    6.29688E-02     8.000     0.000     0.000     0.000    60.052    13.430    55.049    52.643     0.000     0.000     0.000    11.872     0.000     0.000   973.779  2000.000     0.000     0.000     0.000     0.000     0.000     0.000    92.136     4.412    14.090    -5.267     8.434    17.466     0.000     0.000     0.000     0.000     0.000     0.000     0.000     0.000     0.000     0.000     0.000     0.000     0.000     0.682    -0.019     0.000     0.117     1.404     3.352     0.000     0.000     0.000     0.000     0.000     0.000     0.000     0.000     0.000     0.000     0.000     0.000     0.000     0.000     0.000     0.000     0.000     0.000     0.000 .00000E+00 .00000E+00 0.250E+01 0.429E+04 0.000E+00 0.000E+00 0.000E+00 0.000E+00 0.000E+00 0.000E+00     0.000     0.000     0.000
WETN   15 000030005    3    0    6.25625E-01     8.000     0.000     0.000     0.000    60.052    13.430    55.049    52.643     0.000     0.000     0.000     1.201     0.000     0.000   997.347  2000.000     0.000     0.000     0.000     0.000     0.000     0.000    92.136     4.412    14.090    -5.267     8.434    17.466     0.000     0.000     0.000     0.000     0.000     0.000     0.000     0.000     0.000     0.000     0.000     0.000     0.000     0.682    -0.019     0.000     0.117     1.404     3.352     0.000     0.000     0.000     0.000     0.000     0.000     0.000     0.000     0.000     0.000     0.000     0.000     0.000     0.000     0.000     0.000     0.000     0.000     0.000 .00000E+00 .00000E+00 0.250E+01 0.429E+04 0.000E+00 0.000E+00 0.000E+00 0.000E+00 0.000E+00 0.000E+00     0.000     0.000     0.000
ES10   16 000030006    3    0    6.33750E-01     8.000     0.000     0.000     0.000    60.052    13.305    54.754    52.311     0.000     0.000     0.000     1.201     0.000     0.000   997.347  2000.000     0.000     0.000     0.000     0.255     0.000     0.255    92.107     4.412    14.090    -5.267     8.442    17.466     0.000     0.000     0.000     0.000     0.000     0.000     0.000     0.000     0.000     0.000     0.000     0.000     0.000     0.681    -0.019     0.000     0.117     1.400     3.344     0.000     0.000     0.000     0.000     0.000     0.000     0.000     0.005     0.000     0.000     0.000     0.000     0.000     0.000     0.000     0.000     0.000     0.000     0.000 .00000E+00 .00000E+00 0.250E+01 0.429E+04 0.000E+00 0.000E+00 0.000E+00 0.000E+00 0.000E+00 0.498E-02     0.000     0.255     0.000
ES9    17 000030007    3    0    6.15625E-01     8.000     0.000     0.000     0.000    60.052    13.303    54.749    52.306     0.000     0.000     0.000     1.201     0.000     0.000   997.347  2000.000     0.000     0.000     0.000     0.259     0.000     0.259    92.106     4.412    14.090    -5.267     8.443    17.466     0.000     0.000     0.000     0.000     0.000     0.000     0.000     0.000     0.000     0.000     0.000     0.000     0.000     0.681    -0.019     0.000     0.117     1.400     3.344     0.000     0.000     0.000     0.000     0.000     0.000     0.000     0.005     0.000     0.000     0.000     0.000     0.000     0.000     0.000     0.000     0.000     0.000     0.000 .00000E+00 .00000E+00 0.250E+01 0.429E+04 0.000E+00 0.000E+00 0.000E+00 0.000E+00 0.000E+00 0.506E-02     0.000     0.259     0.000
ES9    18 000030008    3    0    6.31258E-03     8.000     0.000     0.000     0.000    60.052    13.430    55.049    52.643     0.000     0.000     0.000     1.201     0.000     0.000   997.347  2000.000     0.000     0.000     0.000     0.000     0.000     0.000    92.136     4.412    14.090    -5.267     8.434    17.466     0.000     0.000     0.000     0.000     0.000     0.000     0.000     0.000     0.000     0.000     0.000     0.000     0.000     0.682    -0.019     0.000     0.117     1.404     3.352     0.000     0.000     0.000     0.000     0.000     0.000     0.000     0.000     0.000     0.000     0.000     0.000     0.000     0.000     0.000     0.000     0.000     0.000     0.000 .00000E+00 .00000E+00 0.250E+01 0.429E+04 0.000E+00 0.000E+00 0.000E+00 0.000E+00 0.000E+00 0.000E+00     0.000     0.000     0.000
ES11   19 000030009    3    0    6.18281E-01     8.000     0.000     0.000     0.000    60.052    13.259    54.646    52.189     0.000     0.000     0.000     1.201     0.000     0.000   997.347  2000.000     0.000     0.000     0.000     0.349     0.000     0.349    92.096     4.412    14.090    -5.267     8.445    17.466     0.000     0.000     0.000     0.000     0.000     0.000     0.000     0.000     0.000     0.000     0.000     0.000     0.000     0.680    -0.019     0.000     0.117     1.399     3.341     0.000     0.000     0.000     0.000     0.000     0.000     0.000     0.007     0.000     0.000     0.000     0.000     0.000     0.000     0.000     0.000     0.000     0.000     0.000 .00000E+00 .00000E+00 0.250E+01 0.429E+04 0.000E+00 0.000E+00 0.000E+00 0.000E+00 0.000E+00 0.694E-02     0.000     0.349     0.000
ES12   20 000030010    3    0    6.68751E-02     8.000     0.000     0.000     0.000    60.052    13.225    54.563    52.097     0.000     0.000     0.000     1.201     0.000     0.000   997.347  2000.000     0.000     0.000     0.000     0.420     0.000     0.420    92.088     4.412    14.090    -5.267     8.448    17.466     0.000     0.000     0.000     0.000     0.000     0.000     0.000     0.000     0.000     0.000     0.000     0.000     0.000     0.680    -0.019     0.000     0.117     1.398     3.339     0.000     0.000     0.000     0.000     0.000     0.000     0.000     0.008     0.000     0.000     0.000     0.000     0.000     0.000     0.000     0.000     0.000     0.000     0.000 .00000E+00 .00000E+00 0.250E+01 0.429E+04 0.000E+00 0.000E+00 0.000E+00 0.000E+00 0.000E+00 0.847E-02     0.000     0.420     0.000
ES13   21 000030011    3    0    6.18749E-02     8.000     0.000     0.000     0.000    60.052    13.220    54.550    52.082     0.000     0.000     0.000     1.201     0.000     0.000   997.347  2000.000     0.000     0.000     0.000     0.431     0.000     0.431    92.086     4.412    14.090    -5.267     8.448    17.466     0.000     0.000     0.000     0.000     0.000     0.000     0.000     0.000     0.000     0.000     0.000     0.000     0.000     0.680    -0.019     0.000     0.117     1.398     3.339     0.000     0.000     0.000     0.000     0.000     0.000     0.000     0.009     0.000     0.000     0.000     0.000     0.000     0.000     0.000     0.000     0.000     0.000     0.000 .00000E+00 .00000E+00 0.250E+01 0.429E+04 0.000E+00 0.280E+04 0.176E+06 0.000E+00 0.000E+00 0.872E-02     0.000     0.431     0.000
PJNL    1 000010001    1    0    7.13850E+01     5.200     0.000     0.000     0.000    60.300    10.211    49.471    47.325     0.000     0.000     0.000     9.021     0.000     0.000   971.232  2000.000     0.000     0.000     0.000     0.006     0.000     0.006    91.544     4.545    14.200    -5.110     8.458    15.670     0.000     0.000     0.000     0.000     0.000     0.000     0.000     0.000     0.000     0.000     0.000     0.000     0.000     0.676    -0.029     0.000     0.116     0.781     1.989     0.000     0.000     0.000     0.000     0.000     0.000     0.000     0.000     0.000     0.000     0.000     0.000     0.000     0.000     0.000     0.000     0.000     0.000     0.000 .00000E+00 .00000E+00 0.250E+01 0.429E+04 0.000E+00 0.000E+00 0.000E+00 0.000E+00 0.000E+00 0.114E-03     0.000     0.006     0.000
PJNL    2 000010002    1    0    7.33594E-01     5.200     0.000     0.000     0.000    60.300    10.309    49.788    47.603     0.000     0.000     0.000     9.021     0.000     0.000   971.232  2000.000     0.000     0.000     0.000     0.000     0.000     0.000    91.580     4.545    14.200    -5.110     8.446    15.670     0.000     0.000     0.000     0.000     0.000     0.000     0.000     0.000     0.000     0.000     0.000     0.000     0.000     0.678    -0.029     0.000     0.116     0.779     1.983     0.000     0.000     0.000     0.000     0.000     0.000     0.000     0.000     0.000     0.000     0.000     0.000     0.000     0.000     0.000     0.000     0.000     0.000     0.000 .00000E+00 .00000E+00 0.250E+01 0.429E+04 0.000E+00 0.000E+00 0.000E+00 0.000E+00 0.000E+00 0.000E+00     0.000     0.000     0.000
WETN    3 000010003    1    0    7.71719E-01     5.200     0.000     0.000     0.000    60.300    10.309    49.788    47.603     0.000     0.000     0.000     1.206     0.000     0.000   996.154  2000.000     0.000     0.000     0.000     0.000     0.000     0.000    91.580     4.545    14.200    -5.110     8.446    15.670     0.000     0.000     0.000     0.000     0.000     0.000     0.000     0.000     0.000     0.000     0.000     0.000     0.000     0.678    -0.029     0.000     0.116     0.779     1.983     0.000     0.000     0.000     0.000     0.000     0.000     0.000     0.000     0.000     0.000     0.000     0.000     0.000     0.000     0.000     0.000     0.000     0.000     0.000 .00000E+00 .00000E+00 0.250E+01 0.429E+04 0.000E+00 0.000E+00 0.000E+00 0.000E+00 0.000E+00 0.000E+00     0.000     0.000     0.000
BARR    4 000010004    1    0    7.22984E+00     5.200     0.000     0.000     0.000    60.300    10.200    49.433    47.292     0.000     0.000     0.000    11.921     0.000     0.000   961.983  2000.000     0.000     0.000     0.000     0.007     0.000     0.007    91.540     4.545    14.200    -5.110     8.459    15.670     0.000     0.000     0.000     0.000     0.000     0.000     0.000     0.000     0.000     0.000     0.000     0.000     0.000     0.676    -0.029     0.000     0.116     0.781     1.989     0.000     0.000     0.000     0.000     0.000     0.000     0.000     0.000     0.000     0.000     0.000     0.000     0.000     0.000     0.000     0.000     0.000     0.000     0.000 .00000E+00 .00000E+00 0.250E+01 0.429E+04 0.000E+00 0.000E+00 0.000E+00 0.000E+00 0.000E+00 0.128E-03     0.000     0.007     0.000
BARR    5 000010005    1    0    7.24999E-02     5.200     0.000     0.000     0.000    60.300    10.309    49.788    47.603     0.000     0.000     0.000    11.921     0.000     0.000   961.983  2000.000     0.000     0.000     0.000     0.000     0.000     0.000    91.580     4.545    14.200    -5.110     8.446    15.670     0.000     0.000     0.000     0.000     0.000     0.000     0.000     0.000     0.000     0.000     0.000     0.000     0.000     0.678    -0.029     0.000     0.116     0.779     1.983     0.000     0.000     0.000     0.000     0.000     0.000     0.000     0.000     0.000     0.000     0.000     0.000     0.000     0.000     0.000     0.000     0.000     0.000     0.000 .00000E+00 .00000E+00 0.250E+01 0.429E+04 0.000E+00 0.000E+00 0.000E+00 0.000E+00 0.000E+00 0.000E+00     0.000     0.000     0.000
WETN    6 000020001    2    0    7.22531E+00     5.200     0.000     0.000     0.000    60.518    10.315    49.732    47.544     0.000     0.000     0.000     1.210     0.000     0.000   996.140  2000.000     0.000     0.000     0.000     0.000     0.000     0.000    91.574     4.545    14.200    -5.110     8.448    15.670     0.000     0.000     0.000     0.000     0.000     0.000     0.000     0.000     0.000     0.000     0.000     0.000     0.000     0.678    -0.029     0.000     0.116     0.780     1.984     0.000     0.000     0.000     0.000     0.000     0.000     0.000     0.000     0.000     0.000     0.000     0.000     0.000     0.000     0.000     0.000     0.000     0.000     0.000 .00000E+00 .00000E+00 0.250E+01 0.429E+04 0.000E+00 0.000E+00 0.000E+00 0.000E+00 0.000E+00 0.000E+00     0.000     0.000     0.000
PJNL    7 000020002    2    0    7.90938E+00     5.200     0.000     0.000     0.000    60.518    10.244    49.503    47.343     0.000     0.000     0.000     9.054     0.000     0.000   971.126  2000.000     0.000     0.000     0.000     0.005     0.000     0.005    91.548     4.545    14.200    -5.110     8.457    15.670     0.000     0.000     0.000     0.000     0.000     0.000     0.000     0.000     0.000     0.000     0.000     0.000     0.000     0.677    -0.029     0.000     0.116     0.781     1.988     0.000     0.000     0.000     0.000     0.000     0.000     0.000     0.000     0.000     0.000     0.000     0.000     0.000     0.000     0.000     0.000     0.000     0.000     0.000 .00000E+00 .00000E+00 0.250E+01 0.429E+04 0.000E+00 0.000E+00 0.000E+00 0.000E+00 0.000E+00 0.798E-04     0.000     0.005     0.000
PJNL    8 000020003    2    0    7.27187E-01     5.200     0.000     0.000     0.000    60.518    10.315    49.732    47.544     0.000     0.000     0.000     9.054     0.000     0.000   971.126  2000.000     0.000     0.000     0.000     0.000     0.000     0.000    91.574     4.545    14.200    -5.110     8.448    15.670     0.000     0.000     0.000     0.000     0.000     0.000     0.000     0.000     0.000     0.000     0.000     0.000     0.000     0.678    -0.029     0.000     0.116     0.780     1.984     0.000     0.000     0.000     0.000     0.000     0.000     0.000     0.000     0.000     0.000     0.000     0.000     0.000     0.000     0.000     0.000     0.000     0.000     0.000 .00000E+00 .00000E+00 0.250E+01 0.429E+04 0.000E+00 0.000E+00 0.000E+00 0.000E+00 0.000E+00 0.000E+00     0.000     0.000     0.000
BARR    9 000020004    2    0    7.10641E+01     5.200     0.000     0.000     0.000    60.518    10.227    49.448    47.295     0.000     0.000     0.000    11.964     0.000     0.000   961.842  2000.000     0.000     0.000     0.000     0.006     0.000     0.006    91.542     4.545    14.200    -5.110     8.459    15.670     0.000     0.000     0.000     0.000     0.000     0.000     0.000     0.000     0.000     0.000     0.000     0.000     0.000     0.676    -0.029     0.000     0.116     0.781     1.989     0.000     0.000     0.000     0.000     0.000     0.000     0.000     0.000     0.000     0.000     0.000     0.000     0.000     0.000     0.000     0.000     0.000     0.000     0.000 .00000E+00 .00000E+00 0.250E+01 0.429E+04 0.000E+00 0.000E+00 0.000E+00 0.000E+00 0.000E+00 0.101E-03     0.000     0.006     0.000
BARR   10 000020005    2    0    7.68751E-02     5.200     0.000     0.000     0.000    60.518    10.315    49.732    47.544     0.000     0.000     0.000    11.964     0.000     0.000   961.842  2000.000     0.000     0.000     0.000     0.000     0.000     0.000    91.574     4.545    14.200    -5.110     8.448    15.670     0.000     0.000     0.000     0.000     0.000     0.000     0.000     0.000     0.000     0.000     0.000     0.000     0.000     0.678    -0.029     0.000     0.116     0.780     1.984     0.000     0.000     0.000     0.000     0.000     0.000     0.000     0.000     0.000     0.000     0.000     0.000     0.000     0.000     0.000     0.000     0.000     0.000     0.000 .00000E+00 .00000E+00 0.250E+01 0.429E+04 0.000E+00 0.000E+00 0.000E+00 0.000E+00 0.000E+00 0.000E+00     0.000     0.000     0.000
PJNL   11 000030001    3    0    7.12831E+01     5.200     0.000     0.000     0.000    60.582    10.292    49.179    46.996     0.000     0.000     0.000     9.063     0.000     0.000   971.095  2000.000     0.000     0.000     0.000     0.006     0.000     0.006    91.511     4.545    14.200    -5.110     8.468    15.670     0.000     0.000     0.000     0.000     0.000     0.000     0.000     0.000     0.000     0.000     0.000     0.000     0.000     0.676    -0.029     0.000     0.116     0.782     1.990     0.000     0.000     0.000     0.000     0.000     0.000     0.000     0.000     0.000     0.000     0.000     0.000     0.000     0.000     0.000     0.000     0.000     0.000     0.000 .00000E+00 .00000E+00 0.250E+01 0.429E+04 0.000E+00 0.000E+00 0.000E+00 0.000E+00 0.000E+00 0.109E-03     0.000     0.006     0.000
PJNL   12 000030002    3    0    7.19844E-01     5.200     0.000     0.000     0.000    60.582    10.387    49.483    47.262     0.000     0.000     0.000     9.063     0.000     0.000   971.095  2000.000     0.000     0.000     0.000     0.000     0.000     0.000    91.545     4.545    14.200    -5.110     8.457    15.670     0.000     0.000     0.000     0.000     0.000     0.000     0.000     0.000     0.000     0.000     0.000     0.000     0.000     0.678    -0.029     0.000     0.116     0.780     1.984     0.000     0.000     0.000     0.000     0.000     0.000     0.000     0.000     0.000     0.000     0.000     0.000     0.000     0.000     0.000     0.000     0.000     0.000     0.000 .00000E+00 .00000E+00 0.250E+01 0.429E+04 0.000E+00 0.000E+00 0.000E+00 0.000E+00 0.000E+00 0.000E+00     0.000     0.000     0.000
BARR   13 000030003    3    0    7.42609E+00     5.200     0.000     0.000     0.000    60.582    10.217    49.395    47.246     0.000     0.000     0.000    11.977     0.000     0.000   961.802  2000.000     0.000     0.000     0.000     0.006     0.000     0.006    91.536     4.545    14.200    -5.110     8.460    15.670     0.000     0.000     0.000     0.000     0.000     0.000     0.000     0.000     0.000     0.000     0.000     0.000     0.000     0.676    -0.029     0.000     0.116     0.782     1.990     0.000     0.000     0.000     0.000     0.000     0.000     0.000     0.000     0.000     0.000     0.000     0.000     0.000     0.000     0.000     0.000     0.000     0.000     0.000 .00000E+00 .00000E+00 0.250E+01 0.429E+04 0.000E+00 0.000E+00 0.000E+00 0.000E+00 0.000E+00 0.116E-03     0.000     0.006     0.000
BARR   14 000030004    3    0    7.29688E-02     5.200     0.000     0.000     0.000    60.582    10.316    49.715    47.526     0.000     0.000     0.000    11.977     0.000     0.000   961.802  2000.000     0.000     0.000     0.000     0.000     0.000     0.000    91.572     4.545    14.200    -5.110     8.449    15.670     0.000     0.000     0.000     0.000     0.000     0.000     0.000     0.000     0.000     0.000     0.000     0.000     0.000     0.678    -0.029     0.000     0.116     0.780     1.984     0.000     0.000     0.000     0.000     0.000     0.000     0.000     0.000     0.000     0.000     0.000     0.000     0.000     0.000     0.000     0.000     0.000     0.000     0.000 .00000E+00 .00000E+00 0.250E+01 0.429E+04 0.000E+00 0.000E+00 0.000E+00 0.000E+00 0.000E+00 0.000E+00     0.000     0.000     0.000
WETN   15 000030005    3    0    7.25625E-01     5.200     0.000     0.000     0.000    60.582    10.316    49.715    47.526     0.000     0.000     0.000     1.212     0.000     0.000   996.136  2000.000     0.000     0.000     0.000     0.000     0.000     0.000    91.572     4.545    14.200    -5.110     8.449    15.670     0.000     0.000     0.000     0.000     0.000     0.000     0.000     0.000     0.000     0.000     0.000     0.000     0.000     0.678    -0.029     0.000     0.116     0.780     1.984     0.000     0.000     0.000     0.000     0.000     0.000     0.000     0.000     0.000     0.000     0.000     0.000     0.000     0.000     0.000     0.000     0.000     0.000     0.000 .00000E+00 .00000E+00 0.250E+01 0.429E+04 0.000E+00 0.000E+00 0.000E+00 0.000E+00 0.000E+00 0.000E+00     0.000     0.000     0.000
ES10   16 000030006    3    0    7.33750E-01     5.200     0.000     0.000     0.000    60.582    10.230    49.436    47.282     0.000     0.000     0.000     1.212     0.000     0.000   996.136  2000.000     0.000     0.000     0.000     0.005     0.000     0.006    91.540     4.545    14.200    -5.110     8.459    15.670     0.000     0.000     0.000     0.000     0.000     0.000     0.000     0.000     0.000     0.000     0.000     0.000     0.000     0.676    -0.029     0.000     0.116     0.781     1.989     0.000     0.000     0.000     0.000     0.000     0.000     0.000     0.000     0.000     0.000     0.000     0.000     0.000     0.000     0.000     0.000     0.000     0.000     0.000 .00000E+00 .00000E+00 0.250E+01 0.429E+04 0.000E+00 0.000E+00 0.000E+00 0.000E+00 0.000E+00 0.997E-04     0.000     0.005     0.000
ES9    17 000030007    3    0    7.15625E-01     5.200     0.000     0.000     0.000    60.582    10.228    49.432    47.278     0.000     0.000     0.000     1.212     0.000     0.000   996.136  2000.000     0.000     0.000     0.000     0.006     0.000     0.006    91.540     4.545    14.200    -5.110     8.459    15.670     0.000     0.000     0.000     0.000     0.000     0.000     0.000     0.000     0.000     0.000     0.000     0.000     0.000     0.676    -0.029     0.000     0.116     0.781     1.989     0.000     0.000     0.000     0.000     0.000     0.000     0.000     0.000     0.000     0.000     0.000     0.000     0.000     0.000     0.000     0.000     0.000     0.000     0.000 .00000E+00 .00000E+00 0.250E+01 0.429E+04 0.000E+00 0.000E+00 0.000E+00 0.000E+00 0.000E+00 0.101E-03     0.000     0.006     0.000
ES9    18 000030008    3    0    7.31258E-03     5.200     0.000     0.000     0.000    60.582    10.316    49.715    47.526     0.000     0.000     0.000     1.212     0.000     0.000   996.136  2000.000     0.000     0.000     0.000     0.000     0.000     0.000    91.572     4.545    14.200    -5.110     8.449    15.670     0.000     0.000     0.000     0.000     0.000     0.000     0.000     0.000     0.000     0.000     0.000     0.000     0.000     0.678    -0.029     0.000     0.116     0.780     1.984     0.000     0.000     0.000     0.000     0.000     0.000     0.000     0.000     0.000     0.000     0.000     0.000     0.000     0.000     0.000     0.000     0.000     0.000     0.000 .00000E+00 .00000E+00 0.250E+01 0.429E+04 0.000E+00 0.000E+00 0.000E+00 0.000E+00 0.000E+00 0.000E+00     0.000     0.000     0.000
ES11   19 000030009    3    0    7.18281E-01     5.200     0.000     0.000     0.000    60.582    10.198    49.333    47.191     0.000     0.000     0.000     1.212     0.000     0.000   996.136  2000.000     0.000     0.000     0.000     0.008     0.000     0.008    91.529     4.545    14.200    -5.110     8.463    15.670     0.000     0.000     0.000     0.000     0.000     0.000     0.000     0.000     0.000     0.000     0.000     0.000     0.000     0.676    -0.029     0.000     0.116     0.782     1.991     0.000     0.000     0.000     0.000     0.000     0.000     0.000     0.000     0.000     0.000     0.000     0.000     0.000     0.000     0.000     0.000     0.000     0.000     0.000 .00000E+00 .00000E+00 0.250E+01 0.429E+04 0.000E+00 0.000E+00 0.000E+00 0.000E+00 0.000E+00 0.140E-03     0.000     0.008     0.000
ES12   20 000030010    3    0    7.68751E-02     5.200     0.000     0.000     0.000    60.582    10.174    49.255    47.122     0.000     0.000     0.000     1.212     0.000     0.000   996.136  2000.000     0.000     0.000     0.000     0.009     0.000     0.009    91.520     4.545    14.200    -5.110     8.466    15.670     0.000     0.000     0.000     0.000     0.000     0.000     0.000     0.000     0.000     0.000     0.000     0.000     0.000     0.675    -0.029     0.000     0.116     0.782     1.992     0.000     0.000     0.000     0.000     0.000     0.000     0.000     0.000     0.000     0.000     0.000     0.000     0.000     0.000     0.000     0.000     0.000     0.000     0.000 .00000E+00 .00000E+00 0.250E+01 0.429E+04 0.000E+00 0.000E+00 0.000E+00 0.000E+00 0.000E+00 0.173E-03     0.000     0.009     0.000
ES13   21 000030011    3    0    7.18749E-02     5.200     0.000     0.000     0.000    60.582    10.171    49.242    47.111     0.000     0.000     0.000     1.212     0.000     0.000   996.136  2000.000     0.000     0.000     0.000     0.009     0.000     0.009    91.518     4.545    14.200    -5.110     8.466    15.670     0.000     0.000     0.000     0.000     0.000     0.000     0.000     0.000     0.000     0.000     0.000     0.000     0.000     0.675    -0.029     0.000     0.116     0.782     1.992     0.000     0.000     0.000     0.000     0.000     0.000     0.000     0.000     0.000     0.000     0.000     0.000     0.000     0.000     0.000     0.000     0.000     0.000     0.000 .00000E+00 .00000E+00 0.250E+01 0.429E+04 0.000E+00 0.280E+04 0.176E+06 0.000E+00 0.000E+00 0.178E-03     0.000     0.009     0.000
PJNL    1 000010001    1    0    8.13850E+01    17.000     0.000     0.000     0.000    52.299    13.729    48.646    49.819     0.000     0.000     0.000     7.824     0.000     0.000   963.408  2000.000     0.000     0.000     0.000     0.725     0.000     0.725    91.448     3.973    12.794    -4.848     7.533    14.230     0.000     0.000     0.000     0.000     0.000     0.000     0.000     0.000     0.000     0.000     0.000     0.000     0.000     0.664    -0.039     0.000     0.114     0.532     1.427     0.000     0.000     0.000     0.000     0.000     0.000     0.000     0.019     0.000     0.000     0.000     0.000     0.000     0.000     0.000     0.000     0.000     0.000     0.000 .00000E+00 .00000E+00 0.250E+01 0.429E+04 0.000E+00 0.000E+00 0.000E+00 0.000E+00 0.000E+00 0.185E-01     0.000     0.725     0.000
PJNL    2 000010002    1    0    8.33594E-01    17.000     0.000     0.000     0.000    52.299    13.898    49.308    50.706     0.000     0.000     0.000     7.824     0.000     0.000   963.408  2000.000     0.000     0.000     0.000     0.000     0.000     0.000    91.523     3.973    12.794    -4.848     7.509    14.230     0.000     0.000     0.000     0.000     0.000     0.000     0.000     0.000     0.000     0.000     0.000     0.000     0.000     0.668    -0.039     0.000     0.115     0.531     1.426     0.000     0.000     0.000     0.000     0.000     0.000     0.000     0.000     0.000     0.000     0.000     0.000     0.000     0.000     0.000     0.000     0.000     0.000     0.000 .00000E+00 .00000E+00 0.250E+01 0.429E+04 0.000E+00 0.000E+00 0.000E+00 0.000E+00 0.000E+00 0.000E+00     0.000     0.000     0.000
WETN    3 000010003    1    0    8.71719E-01    17.000     0.000     0.000     0.000    52.299    13.898    49.308    50.706     0.000     0.000     0.000     1.046     0.000     0.000   995.108  2000.000     0.000     0.000     0.000     0.000     0.000     0.000    91.523     3.973    12.794    -4.848     7.509    14.230     0.000     0.000     0.000     0.000     0.000     0.000     0.000     0.000     0.000     0.000     0.000     0.000     0.000     0.668    -0.039     0.000     0.115     0.531     1.426     0.000     0.000     0.000     0.000     0.000     0.000     0.000     0.000     0.000     0.000     0.000     0.000     0.000     0.000     0.000     0.000     0.000     0.000     0.000 .00000E+00 .00000E+00 0.250E+01 0.429E+04 0.000E+00 0.000E+00 0.000E+00 0.000E+00 0.000E+00 0.000E+00     0.000     0.000     0.000
BARR    4 000010004    1    0    8.22984E+00    17.000     0.000     0.000     0.000    52.299    13.710    48.568    49.714     0.000     0.000     0.000    10.340     0.000     0.000   951.643  2000.000     0.000     0.000     0.000     0.810     0.000     0.810    91.439     3.973    12.794    -4.848     7.536    14.230     0.000     0.000     0.000     0.000     0.000     0.000     0.000     0.000     0.000     0.000     0.000     0.000     0.000     0.664    -0.039     0.000     0.114     0.532     1.428     0.000     0.000     0.000     0.000     0.000     0.000     0.000     0.021     0.000     0.000     0.000     0.000     0.000     0.000     0.000     0.000     0.000     0.000     0.000 .00000E+00 .00000E+00 0.250E+01 0.429E+04 0.000E+00 0.000E+00 0.000E+00 0.000E+00 0.000E+00 0.209E-01     0.000     0.810     0.000
BARR    5 000010005    1    0    8.24999E-02    17.000     0.000     0.000     0.000    52.299    13.898    49.308    50.706     0.000     0.000     0.000    10.340     0.000     0.000   951.643  2000.000     0.000     0.000     0.000     0.000     0.000     0.000    91.523     3.973    12.794    -4.848     7.509    14.230     0.000     0.000     0.000     0.000     0.000     0.000     0.000     0.000     0.000     0.000     0.000     0.000     0.000     0.668    -0.039     0.000     0.115     0.531     1.426     0.000     0.000     0.000     0.000     0.000     0.000     0.000     0.000     0.000     0.000     0.000     0.000     0.000     0.000     0.000     0.000     0.000     0.000     0.000 .00000E+00 .00000E+00 0.250E+01 0.429E+04 0.000E+00 0.000E+00 0.000E+00 0.000E+00 0.000E+00 0.000E+00     0.000     0.000     0.000
WETN    6 000020001    2    0    8.22531E+00    17.000     0.000     0.000     0.000    52.489    13.910    49.243    50.634     0.000     0.000     0.000     1.050     0.000     0.000   995.090  2000.000     0.000     0.000     0.000     0.000     0.000     0.000    91.515     3.973    12.794    -4.848     7.512    14.230     0.000     0.000     0.000     0.000     0.000     0.000     0.000     0.000     0.000     0.000     0.000     0.000     0.000     0.668    -0.039     0.000     0.115     0.531     1.426     0.000     0.000     0.000     0.000     0.000     0.000     0.000     0.000     0.000     0.000     0.000     0.000     0.000     0.000     0.000     0.000     0.000     0.000     0.000 .00000E+00 .00000E+00 0.250E+01 0.429E+04 0.000E+00 0.000E+00 0.000E+00 0.000E+00 0.000E+00 0.000E+00     0.000     0.000     0.000
PJNL    7 000020002    2    0    8.90938E+00    17.000     0.000     0.000     0.000    52.489    13.787    48.765    49.993     0.000     0.000     0.000     7.852     0.000     0.000   963.274  2000.000     0.000     0.000     0.000     0.525     0.000     0.525    91.461     3.973    12.794    -4.848     7.529    14.230     0.000     0.000     0.000     0.000     0.000     0.000     0.000     0.000     0.000     0.000     0.000     0.000     0.000     0.665    -0.039     0.000     0.114     0.532     1.427     0.000     0.000     0.000     0.000     0.000     0.000     0.000     0.013     0.000     0.000     0.000     0.000     0.000     0.000     0.000     0.000     0.000     0.000     0.000 .00000E+00 .00000E+00 0.250E+01 0.429E+04 0.000E+00 0.000E+00 0.000E+00 0.000E+00 0.000E+00 0.132E-01     0.000     0.525     0.000
PJNL    8 000020003    2    0    8.27187E-01    17.000     0.000     0.000     0.000    52.489    13.910    49.243    50.634     0.000     0.000     0.000     7.852     0.000     0.000   963.274  2000.000     0.000     0.000     0.000     0.000     0.000     0.000    91.515     3.973    12.794    -4.848     7.512    14.230     0.000     0.000     0.000     0.000     0.000     0.000     0.000     0.000     0.000     0.000     0.000     0.000     0.000     0.668    -0.039     0.000     0.115     0.531     1.426     0.000     0.000     0.000     0.000     0.000     0.000     0.000     0.000     0.000     0.000     0.000     0.000     0.000     0.000     0.000     0.000     0.000     0.000     0.000 .00000E+00 .00000E+00 0.250E+01 0.429E+04 0.000E+00 0.000E+00 0.000E+00 0.000E+00 0.000E+00 0.000E+00     0.000     0.000     0.000
BARR    9 000020004    2    0    8.10641E+01    17.000     0.000     0.000     0.000    52.489    13.759    48.651    49.841     0.000     0.000     0.000    10.377     0.000     0.000   951.465  2000.000     0.000     0.000     0.000     0.649     0.000     0.649    91.448     3.973    12.794    -4.848     7.533    14.230     0.000     0.000     0.000     0.000     0.000     0.000     0.000     0.000     0.000     0.000     0.000     0.000     0.000     0.665    -0.039     0.000     0.114     0.532     1.428     0.000     0.000     0.000     0.000     0.000     0.000     0.000     0.017     0.000     0.000     0.000     0.000     0.000     0.000     0.000     0.000     0.000     0.000     0.000 .00000E+00 .00000E+00 0.250E+01 0.429E+04 0.000E+00 0.000E+00 0.000E+00 0.000E+00 0.000E+00 0.166E-01     0.000     0.649     0.000
BARR   10 000020005    2    0    8.68751E-02    17.000     0.000     0.000     0.000    52.489    13.910    49.243    50.634     0.000     0.000     0.000    10.377     0.000     0.000   951.465  2000.000     0.000     0.000     0.000     0.000     0.000     0.000    91.515     3.973    12.794    -4.848     7.512    14.230     0.000     0.000     0.000     0.000     0.000     0.000     0.000     0.000     0.000     0.000     0.000     0.000     0.000     0.668    -0.039     0.000     0.115     0.531     1.426     0.000     0.000     0.000     0.000     0.000     0.000     0.000     0.000     0.000     0.000     0.000     0.000     0.000     0.000     0.000     0.000     0.000     0.000     0.000 .00000E+00 .00000E+00 0.250E+01 0.429E+04 0.000E+00 0.000E+00 0.000E+00 0.000E+00 0.000E+00 0.000E+00     0.000     0.000     0.000
[...]
ES12   20 000030010    3    0 1990.68751E-02   478.700     0.000     0.000     0.000   389.955   227.426    87.381   113.859    92.699   100.047     5.002     7.799     0.000     0.000   997.770  2000.552    56.488    56.488     0.000   105.640    92.505   260.382    79.753     4.244     9.795    -1.307     5.633     9.290   202.719   151.585     0.000     0.000     0.000     0.000     0.000     0.000     0.000     0.000     0.000     0.000     0.000     6.253    -5.147     0.000     1.070     1.027     1.069     0.000     0.000     0.000    27.718     3.389     2.722     0.005     0.338     2.588     0.014     0.001     0.000    -0.000   126.000     0.000     0.000     0.000     0.000     0.000 .00000E+00 .00000E+00 0.766E+00 0.429E+04 0.000E+00 0.000E+00 0.000E+00 0.000E+00 0.000E+00 0.338E+00     5.749   105.640     0.000
ES13   21 000030011    3    0 1990.18749E-02   478.700     0.000     0.000     0.000   389.955   227.282    87.354   113.630    90.858    98.001     4.900     7.799     0.000     0.000   997.743  2000.540    56.479    56.479     0.000   107.856    90.384   260.346    79.751     4.244     9.795    -1.307     5.634     9.290   180.489   157.124     0.000     0.000     0.000     0.000     0.000     0.000     0.000     0.000     0.000     0.000     0.000     6.252    -5.147     0.000     1.070     1.028     1.070     0.000     0.000     0.000    27.088     3.312     2.659     0.005     0.346     2.559     0.014     0.001     0.000    -0.000   126.000     0.000     0.000     0.000     0.000     0.000 .00000E+00 .00000E+00 0.766E+00 0.429E+04 0.000E+00 0.280E+04 0.176E+06 0.000E+00 0.000E+00 0.346E+00     5.626   107.856     0.000
PJNL    1 000010001    1    0  9.5.13850E+01  1015.174     0.000     0.000     0.000   439.956   260.246   102.495   114.863   299.355   299.351    52.806    65.817     0.000     0.000   970.442  2002.467   275.444   275.444     0.000   174.865   183.828   686.684    94.932     4.740    11.140    -1.659     6.554    10.640   969.882   446.413     0.000     0.000     0.000     0.000     0.000     0.000     0.000     0.000     0.000     0.000     0.000     7.921    -4.141     0.000     1.357     1.950     4.267     0.000     0.000     0.000    49.842     6.103     4.875     0.008     0.674     8.629     0.075     0.003     0.000    -0.000   146.132     0.000     0.000     0.000     0.105     0.000 .00000E+00 .00000E+00 0.761E+00 0.000E+00 0.000E+00 0.000E+00 0.000E+00 0.000E+00 0.000E+00 0.674E+00    52.547   174.865     0.000
PJNL    2 000010002    1    0  9.5.33594E-01  1015.174     0.000     0.000     0.000   439.956   263.129   103.521   119.414   469.252   469.011    82.733    65.817     0.000     0.000   974.052  2004.053   277.128   277.120     0.000     0.004   323.180   682.613    94.977     4.740    11.140    -1.659     6.542    10.640     1.375     3.798     0.000     0.000     0.000     0.000     0.000     0.000     0.000     0.000     0.000     0.000     0.000     8.085    -4.235     0.000     1.385     1.704     3.981     0.000     0.000     0.000    14.443     1.768     1.346     0.009     0.000    10.964     0.152     0.046     0.000    -0.000   146.132     0.000     0.000     0.000     0.105     0.000 .00000E+00 .00000E+00 0.760E+00 0.000E+00 0.000E+00 0.000E+00 0.000E+00 0.000E+00 0.000E+00 0.724E-05    82.308     0.004     0.000
WETN    3 000010003    1    0  9.5.71719E-01  1015.174     0.000     0.000     0.000   439.956   260.798   104.065   119.449   471.396   471.018    83.088     8.799     0.000     0.000  2241.989  2004.125   277.312   277.312     0.000     0.004   248.903   608.874    95.004     4.740    11.140    -1.659     6.534    10.640     2.204     3.799     0.000     0.000     0.000     0.000     0.000     0.000     0.000     0.000     0.000     0.000     0.000     8.080    -4.229     0.000     1.384     1.725     4.023     0.000     0.000     0.000    19.844     2.429     1.862     0.009     0.000    10.968     0.033     0.039     0.000    -0.000   146.168     0.000     0.000     0.000     0.000     0.000 .00000E+00 .00000E+00 0.763E+00 0.000E+00 0.000E+00 0.000E+00 0.000E+00 0.000E+00 0.000E+00 0.724E-05    82.655     0.004     0.000
BARR    4 000010004    1    0  9.5.22984E+00  1015.174     0.000     0.000     0.000   439.956   256.846   103.132   116.107   284.849   284.635    50.210    86.979     0.000     0.000   973.413  2003.568   275.666   275.666     0.000   192.408   150.234   668.143    94.964     4.740    11.140    -1.659     6.545    10.640   965.921   541.799     0.000     0.000     0.000     0.000     0.000     0.000     0.000     0.000     0.000     0.000     0.000     7.937    -4.148     0.000     1.360     1.964     4.280     0.000     0.000     0.000    49.837     6.102     4.875     0.008     0.748     8.404     0.049     0.003     0.000     6.107   146.168     0.000     0.000     0.000     0.000     0.000 .00000E+00 .00000E+00 0.763E+00 0.000E+00 0.000E+00 0.000E+00 0.000E+00 0.000E+00 0.000E+00 0.748E+00    49.835   192.408     0.000
BARR    5 000010005    1    0  9.5.24999E-02  1015.174     0.000     0.000     0.000   439.956   260.214   104.196   119.457   471.931   471.119    83.105    86.979     0.000     0.000   982.716  2006.182   277.360   277.353     0.000     0.004   302.846   662.660    95.010     4.740    11.140    -1.659     6.532    10.640     1.034     3.804     0.000     0.000     0.000     0.000     0.000     0.000     0.000     0.000     0.000     0.000     0.000     8.112    -4.249     0.000     1.389     1.694     3.956     0.000     0.000     0.000    11.592     1.419     1.076     0.009     0.000    10.996     0.119     0.050     0.000     4.634   146.168     0.000     0.000     0.000     0.000     0.000 .00000E+00 .00000E+00 0.762E+00 0.000E+00 0.000E+00 0.000E+00 0.000E+00 0.000E+00 0.000E+00 0.735E-05    82.457     0.004     0.000
WETN    6 000020001    2    0  9.5.22531E+00  1015.174     0.000     0.000     0.000   441.368   261.218   104.013   119.442   470.993   470.629    83.019     8.827     0.000     0.000  2241.953  2004.114   277.296   277.295     0.000     0.004   248.557   608.444    95.001     4.740    11.140    -1.659     6.534    10.640     2.521     3.805     0.000     0.000     0.000     0.000     0.000     0.000     0.000     0.000     0.000     0.000     0.000     8.073    -4.225     0.000     1.383     1.731     4.034     0.000     0.000     0.000    21.534     2.636     2.025     0.009     0.000    10.961     0.033     0.037     0.000    -0.000   146.168     0.000     0.000     0.000     0.000     0.000 .00000E+00 .00000E+00 0.766E+00 0.000E+00 0.000E+00 0.000E+00 0.000E+00 0.000E+00 0.000E+00 0.724E-05    82.587     0.004     0.000
PJNL    7 000020002    2    0  9.5.90938E+00  1015.174     0.000     0.000     0.000   441.368   261.508   102.685   116.529   340.552   340.548    60.073    66.029     0.000     0.000   971.366  2002.831   275.652   275.652     0.000   132.044   217.449   684.921    94.941     4.740    11.140    -1.659     6.552    10.640   525.249   252.343     0.000     0.000     0.000     0.000     0.000     0.000     0.000     0.000     0.000     0.000     0.000     7.928    -4.144     0.000     1.358     1.919     4.252     0.000     0.000     0.000    49.117     6.014     4.798     0.008     0.499     9.207     0.092     0.003     0.000    -0.000   146.132     0.000     0.000     0.000     0.105     0.000 .00000E+00 .00000E+00 0.765E+00 0.000E+00 0.000E+00 0.000E+00 0.000E+00 0.000E+00 0.000E+00 0.499E+00    59.776   132.044     0.000
PJNL    8 000020003    2    0  9.5.27187E-01  1015.174     0.000     0.000     0.000   441.368   263.576   103.462   119.406   468.826   468.599    82.661    66.029     0.000     0.000   973.807  2004.043   277.109   277.101     0.000     0.004   322.656   681.997    94.974     4.740    11.140    -1.659     6.543    10.640     1.341     3.798     0.000     0.000     0.000     0.000     0.000     0.000     0.000     0.000     0.000     0.000     0.000     8.084    -4.235     0.000     1.385     1.703     3.978     0.000     0.000     0.000    14.173     1.735     1.320     0.009     0.000    10.962     0.152     0.046     0.000    -0.000   146.132     0.000     0.000     0.000     0.105     0.000 .00000E+00 .00000E+00 0.764E+00 0.000E+00 0.000E+00 0.000E+00 0.000E+00 0.000E+00 0.000E+00 0.724E-05    82.237     0.004     0.000
BARR    9 000020004    2    0  9.5.10641E+01  1015.174     0.000     0.000     0.000   441.368   257.941   103.265   117.415   316.384   316.144    55.768    87.258     0.000     0.000   974.961  2003.991   275.788   275.788     0.000   159.535   175.744   666.416    94.970     4.740    11.140    -1.659     6.543    10.640   781.726   368.112     0.000     0.000     0.000     0.000     0.000     0.000     0.000     0.000     0.000     0.000     0.000     7.941    -4.150     0.000     1.360     1.941     4.264     0.000     0.000     0.000    49.637     6.078     4.853     0.008     0.611     8.858     0.060     0.003     0.000     5.986   146.168     0.000     0.000     0.000     0.000     0.000 .00000E+00 .00000E+00 0.766E+00 0.000E+00 0.000E+00 0.000E+00 0.000E+00 0.000E+00 0.000E+00 0.611E+00    55.349   159.535     0.000
BARR   10 000020005    2    0  9.5.68751E-02  1015.174     0.000     0.000     0.000   441.368   260.620   104.147   119.450   471.542   470.743    83.039    87.258     0.000     0.000   982.550  2006.172   277.344   277.337     0.000     0.004   302.275   662.008    95.008     4.740    11.140    -1.659     6.533    10.640     1.168     3.807     0.000     0.000     0.000     0.000     0.000     0.000     0.000     0.000     0.000     0.000     0.000     8.107    -4.246     0.000     1.389     1.699     3.967     0.000     0.000     0.000    12.759     1.561     1.186     0.009     0.000    10.991     0.119     0.049     0.000     4.805   146.168     0.000     0.000     0.000     0.000     0.000 .00000E+00 .00000E+00 0.765E+00 0.000E+00 0.000E+00 0.000E+00 0.000E+00 0.000E+00 0.000E+00 0.735E-05    82.392     0.004     0.000
PJNL   11 000030001    3    0  9.5.12831E+01  1015.174     0.000     0.000     0.000   441.778   261.888   102.159   114.118   303.620   303.616    15.181    66.090     0.000     0.000   971.407  2000.708   275.343   275.343     0.000   169.140   225.344   684.933    94.915     4.740    11.140    -1.659     6.559    10.640   897.365   420.102     0.000     0.000     0.000     0.000     0.000     0.000     0.000     0.000     0.000     0.000     0.000     7.918    -4.139     0.000     1.356     1.946     4.265     0.000     0.000     0.000    49.775     6.095     4.868     0.008     0.651     8.700     0.092     0.003     0.000    -0.000   146.132     0.000     0.000     0.000     0.105     0.000 .00000E+00 .00000E+00 0.765E+00 0.000E+00 0.000E+00 0.000E+00 0.000E+00 0.000E+00 0.000E+00 0.651E+00    15.107   169.140     0.000
PJNL   12 000030002    3    0  9.5.19844E-01  1015.174     0.000     0.000     0.000   441.778   264.674   103.169   119.394   467.814   467.659    23.383    66.090     0.000     0.000   974.732  2001.136   277.025   277.017     0.000     0.004   380.836   681.120    94.959     4.740    11.140    -1.659     6.547    10.640     1.291     3.822     0.000     0.000     0.000     0.000     0.000     0.000     0.000     0.000     0.000     0.000     0.000     8.083    -4.234     0.000     1.384     1.702     3.975     0.000     0.000     0.000    13.775     1.686     1.282     0.009     0.000    10.956     0.178     0.047     0.000    -0.000   146.132     0.000     0.000     0.000     0.105     0.000 .00000E+00 .00000E+00 0.765E+00 0.000E+00 0.000E+00 0.000E+00 0.000E+00 0.000E+00 0.000E+00 0.724E-05    23.264     0.004     0.000
BARR   13 000030003    3    0  9.5.42609E+00  1015.174     0.000     0.000     0.000   441.778   257.696   103.153   116.607   299.187   298.962    14.948    87.340     0.000     0.000   976.095  2001.065   275.710   275.710     0.000   177.130   199.181   666.858    94.965     4.740    11.140    -1.659     6.544    10.640   875.599   458.687     0.000     0.000     0.000     0.000     0.000     0.000     0.000     0.000     0.000     0.000     0.000     7.938    -4.148     0.000     1.360     1.953     4.272     0.000     0.000     0.000    49.751     6.091     4.866     0.008     0.684     8.615     0.066     0.003     0.000     6.171   146.168     0.000     0.000     0.000     0.000     0.000 .00000E+00 .00000E+00 0.766E+00 0.000E+00 0.000E+00 0.000E+00 0.000E+00 0.000E+00 0.000E+00 0.684E+00    14.836   177.130     0.000
BARR   14 000030004    3    0  9.5.29688E-02  1015.174     0.000     0.000     0.000   441.778   260.739   104.133   119.448   471.428   470.633    23.532    87.340     0.000     0.000   985.073  2001.748   277.340   277.333     0.000     0.004   361.327   662.012    95.007     4.740    11.140    -1.659     6.533    10.640     1.055     3.804     0.000     0.000     0.000     0.000     0.000     0.000     0.000     0.000     0.000     0.000     0.000     8.110    -4.248     0.000     1.389     1.695     3.958     0.000     0.000     0.000    11.785     1.442     1.094     0.009     0.000    10.993     0.140     0.050     0.000     4.855   146.168     0.000     0.000     0.000     0.000     0.000 .00000E+00 .00000E+00 0.766E+00 0.000E+00 0.000E+00 0.000E+00 0.000E+00 0.000E+00 0.000E+00 0.735E-05    23.348     0.004     0.000
WETN   15 000030005    3    0  9.5.25625E-01  1015.174     0.000     0.000     0.000   441.778   261.340   103.998   119.440   470.876   470.515    23.526     8.836     0.000     0.000  2242.199  2001.165   277.291   277.291     0.000     0.004   307.903   608.601    95.001     4.740    11.140    -1.659     6.535    10.640     1.950     3.799     0.000     0.000     0.000     0.000     0.000     0.000     0.000     0.000     0.000     0.000     0.000     8.084    -4.232     0.000     1.385     1.720     4.012     0.000     0.000     0.000    18.329     2.243     1.717     0.009     0.000    10.970     0.041     0.041     0.000     0.000   146.168     0.000     0.000     0.000     0.000     0.000 .00000E+00 .00000E+00 0.766E+00 0.000E+00 0.000E+00 0.000E+00 0.000E+00 0.000E+00 0.000E+00 0.724E-05    23.404     0.004     0.000
ES10   16 000030006    3    0  9.5.33750E-01  1015.174     0.000     0.000     0.000   441.778   258.095   103.260   117.455   318.082   318.079    15.904     8.836     0.000     0.000   998.159  2000.747   275.790   275.790     0.000   157.677   293.532   742.824    94.970     4.740    11.140    -1.659     6.543    10.640   513.949   361.987     0.000     0.000     0.000     0.000     0.000     0.000     0.000     0.000     0.000     0.000     0.000     7.942    -4.150     0.000     1.360     1.938     4.269     0.000     0.000     0.000    49.079     6.009     4.795     0.008     0.603     8.884     0.114     0.004     0.000     6.014   146.168     0.000     0.000     0.000     0.000     0.000 .00000E+00 .00000E+00 0.766E+00 0.000E+00 0.000E+00 0.000E+00 0.000E+00 0.000E+00 0.000E+00 0.603E+00    15.826   157.677     0.000
ES9    17 000030007    3    0  9.5.15625E-01  1015.174     0.000     0.000     0.000   441.778   258.053   103.248   117.363   316.007   316.004    15.800     8.836     0.000     0.000   998.150  2000.741   275.782   275.782     0.000   159.811   291.562   742.877    94.970     4.740    11.140    -1.659     6.543    10.640   481.866   371.949     0.000     0.000     0.000     0.000     0.000     0.000     0.000     0.000     0.000     0.000     0.000     7.942    -4.150     0.000     1.360     1.939     4.271     0.000     0.000     0.000    48.978     5.996     4.785     0.008     0.612     8.855     0.113     0.004     0.000     6.031   146.168     0.000     0.000     0.000     0.000     0.000 .00000E+00 .00000E+00 0.766E+00 0.000E+00 0.000E+00 0.000E+00 0.000E+00 0.000E+00 0.000E+00 0.612E+00    15.722   159.811     0.000
ES9    18 000030008    3    0  9.5.31258E-03  1015.174     0.000     0.000     0.000   441.778   260.739   104.133   119.448   471.428   471.031    23.552     8.836     0.000     0.000   999.309  2001.171   277.340   277.333     0.000     0.004   438.716   739.481    95.007     4.740    11.140    -1.659     6.533    10.640     0.786     3.783     0.000     0.000     0.000     0.000     0.000     0.000     0.000     0.000     0.000     0.000     0.000     8.118    -4.254     0.000     1.391     1.684     3.935     0.000     0.000     0.000     9.260     1.133     0.857     0.009     0.000    11.000     0.195     0.054     0.000     4.855   146.168     0.000     0.000     0.000     0.000     0.000 .00000E+00 .00000E+00 0.766E+00 0.000E+00 0.000E+00 0.000E+00 0.000E+00 0.000E+00 0.000E+00 0.735E-05    23.429     0.004     0.000
ES11   19 000030009    3    0  9.5.18281E-01  1015.174     0.000     0.000     0.000   441.778   257.073   102.985   115.350   271.965   271.962    13.598     8.836     0.000     0.000   997.951  2000.631   275.583   275.583     0.000   205.220   249.743   744.078    94.957     4.740    11.140    -1.659     6.547    10.640   816.901   618.051     0.000     0.000     0.000     0.000     0.000     0.000     0.000     0.000     0.000     0.000     0.000     7.934    -4.146     0.000     1.359     1.973     4.290     0.000     0.000     0.000    49.680     6.082     4.858     0.009     0.804     8.217     0.092     0.003     0.000     6.405   146.168     0.000     0.000     0.000     0.000     0.000 .00000E+00 .00000E+00 0.766E+00 0.000E+00 0.000E+00 0.000E+00 0.000E+00 0.000E+00 0.000E+00 0.804E+00    13.532   205.220     0.000
ES12   20 000030010    3    0  9.5.68751E-02  1015.174     0.000     0.000     0.000   441.778   256.262   102.780   113.859   240.352   240.349    12.017     8.836     0.000     0.000   997.770  2000.552   275.420   275.420     0.000   237.946   219.730   745.056    94.948     4.740    11.140    -1.659     6.549    10.640   974.537   827.886     0.000     0.000     0.000     0.000     0.000     0.000     0.000     0.000     0.000     0.000     0.000     7.929    -4.144     0.000     1.358     1.996     4.307     0.000     0.000     0.000    49.842     6.103     4.876     0.009     0.948     7.732     0.078     0.003     0.000     6.705   146.168     0.000     0.000     0.000     0.000     0.000 .00000E+00 .00000E+00 0.766E+00 0.000E+00 0.000E+00 0.000E+00 0.000E+00 0.000E+00 0.000E+00 0.948E+00    11.960   237.946     0.000
ES13   21 000030011    3    0  9.5.18749E-02  1015.174     0.000     0.000     0.000   441.778   256.128   102.748   113.630   235.613   235.610    11.781     8.836     0.000     0.000   997.743  2000.540   275.394   275.394     0.000   242.867   215.231   745.216    94.946     4.740    11.140    -1.659     6.550    10.640   867.674   860.707     0.000     0.000     0.000     0.000     0.000     0.000     0.000     0.000     0.000     0.000     0.000     7.929    -4.144     0.000     1.358     2.000     4.312     0.000     0.000     0.000    49.737     6.090     4.865     0.009     0.970     7.657     0.076     0.003     0.000     6.754   146.168     0.000     0.000     0.000     0.000     0.000 .00000E+00 .00000E+00 0.766E+00 0.000E+00 0.000E+00 0.280E+04 0.176E+06 0.000E+00 0.000E+00 0.970E+00    11.724   242.867     0.000
