1
    SWAT Nov 14  VER 2023/Rev 692                                                                        0/ 0/   0      0: 0: 0

    General Input/Output section (file.cio):                                        
    5/19/2025 12:00:00 AM ARCGIS-SWAT interface AV                                  
                                                                                    


       RCH      GIS   MON     AREAkm2  FLOW_INcms FLOW_OUTcms     EVAPcms    TLOSScms  SED_INtons SED_OUTtons SEDCONCmg/L   ORGN_INkg  ORGN_OUTkg   ORGP_INkg  ORGP_OUTkg    NO3_INkg   NO3_OUTkg    NH4_INkg   NH4_OUTkg    NO2_INkg   NO2_OUTkg   MINP_INkg  MINP_OUTkg   CHLA_INkg  CHLA_OUTkg   CBOD_INkg  CBOD_OUTkg  DISOX_INkg DISOX_OUTkg SOLPST_INmgSOLPST_OUTmg SORPST_INmgSORPST_OUTmg  REACTPSTmg    VOLPSTmg  SETTLPSTmgRESUSP_PSTmgDIFFUSEPSTmgREACBEDPSTmg   BURYPSTmg   BED_PSTmg BACTP_OUTctBACTLP_OUTct  CMETAL#1kg  CMETAL#2kg  CMETAL#3kg     TOT Nkg     TOT Pkg NO3ConcMg/l    WTMPdegc     Salt1       Salt2       Salt3       Salt4       Salt5       Salt6       Salt7       Salt8       Salt9       Salt10       SAR           EC  
REACH    1        0     4  0.5790E+01  0.1200E-03  0.5751E-04  0.6254E-04  0.0000E+00  0.7896E-07  0.0000E+00  0.0000E+00  0.2468E-05  0.5653E-06  0.7196E-05  0.1434E-05  0.1836E+00  0.8800E-01  0.1061E-02  0.1694E-02  0.0000E+00  0.1532E-03  0.4488E-05  0.7298E-05  0.3091E-10  0.0000E+00  0.0000E+00  0.0000E+00  0.1200E+01  0.5715E+00  0.0000E+00  0.0000E+00  0.0000E+00  0.0000E+00  0.0000E+00  0.0000E+00  0.0000E+00  0.0000E+00  0.0000E+00  0.0000E+00  0.0000E+00  0.0000E+00  0.0000E+00  0.0000E+00  0.0000E+00  0.0000E+00  0.0000E+00  0.8984E-01  0.8732E-05  0.0000E+00  0.0000E+00  0.0000E+00  0.0000E+00  0.0000E+00  0.0000E+00  0.0000E+00  0.0000E+00  0.0000E+00  0.0000E+00  0.0000E+00  0.0000E+00  0.0000E+00  0.0000E+00
REACH    2        0     4  0.2233E+01  0.5238E-04  0.2859E-04  0.2378E-04  0.0000E+00  0.3199E-07  0.1280E-07  0.1088E-02  0.2105E-05  0.3622E-06  0.6314E-05  0.9831E-06  0.8002E-01  0.4370E-01  0.0000E+00  0.5232E-03  0.0000E+00  0.0000E+00  0.2107E-05  0.1291E-05  0.4728E-10  0.0000E+00  0.0000E+00  0.0000E+00  0.5264E+00  0.2844E+00  0.0000E+00  0.0000E+00  0.0000E+00  0.0000E+00  0.0000E+00  0.0000E+00  0.0000E+00  0.0000E+00  0.0000E+00  0.0000E+00  0.0000E+00  0.0000E+00  0.0000E+00  0.0000E+00  0.0000E+00  0.0000E+00  0.0000E+00  0.4422E-01  0.2274E-05  0.0000E+00  0.0000E+00  0.0000E+00  0.0000E+00  0.0000E+00  0.0000E+00  0.0000E+00  0.0000E+00  0.0000E+00  0.0000E+00  0.0000E+00  0.0000E+00  0.0000E+00  0.0000E+00
REACH    3        0     4  0.1834E+01  0.5552E-04  0.3824E-04  0.1729E-04  0.0000E+00  0.8540E-07  0.3416E-07  0.6609E-03  0.1807E-05  0.4410E-06  0.5421E-05  0.1218E-05  0.8517E-01  0.5867E-01  0.0000E+00  0.5379E-03  0.0000E+00  0.0000E+00  0.1809E-05  0.1531E-05  0.3623E-10  0.0000E+00  0.0000E+00  0.0000E+00  0.5581E+00  0.3802E+00  0.0000E+00  0.0000E+00  0.0000E+00  0.0000E+00  0.0000E+00  0.0000E+00  0.0000E+00  0.0000E+00  0.0000E+00  0.0000E+00  0.0000E+00  0.0000E+00  0.0000E+00  0.0000E+00  0.0000E+00  0.0000E+00  0.0000E+00  0.5920E-01  0.2748E-05  0.0000E+00  0.0000E+00  0.0000E+00  0.0000E+00  0.0000E+00  0.0000E+00  0.0000E+00  0.0000E+00  0.0000E+00  0.0000E+00  0.0000E+00  0.0000E+00  0.0000E+00  0.0000E+00
REACH    1        0     5  0.5790E+01  0.8701E-03  0.8064E-03  0.4800E-04  0.0000E+00  0.2465E-06  0.0000E+00  0.0000E+00  0.9489E-05  0.4688E-05  0.2842E-04  0.1457E-04  0.5714E+01  0.5299E+01  0.4576E-02  0.1500E-01  0.3995E-05  0.2043E-03  0.2264E-04  0.1040E-03  0.5203E-09  0.0000E+00  0.0000E+00  0.0000E+00  0.2638E+02  0.2436E+02  0.0000E+00  0.0000E+00  0.0000E+00  0.0000E+00  0.0000E+00  0.0000E+00  0.0000E+00  0.0000E+00  0.0000E+00  0.0000E+00  0.0000E+00  0.0000E+00  0.0000E+00  0.0000E+00  0.0000E+00  0.0000E+00  0.0000E+00  0.5314E+01  0.1186E-03  0.0000E+00  0.0000E+00  0.0000E+00  0.0000E+00  0.0000E+00  0.0000E+00  0.0000E+00  0.0000E+00  0.0000E+00  0.0000E+00  0.0000E+00  0.0000E+00  0.0000E+00  0.0000E+00
REACH    2        0     5  0.2233E+01  0.2953E-03  0.2725E-03  0.1768E-04  0.0000E+00  0.9917E-07  0.1919E-07  0.9417E-03  0.6525E-05  0.2290E-05  0.1957E-04  0.6550E-05  0.1918E+01  0.1771E+01  0.0000E+00  0.1715E-02  0.0000E+00  0.3691E-05  0.6532E-05  0.1086E-04  0.5873E-09  0.0000E+00  0.0000E+00  0.0000E+00  0.9012E+01  0.8232E+01  0.0000E+00  0.0000E+00  0.0000E+00  0.0000E+00  0.0000E+00  0.0000E+00  0.0000E+00  0.0000E+00  0.0000E+00  0.0000E+00  0.0000E+00  0.0000E+00  0.0000E+00  0.0000E+00  0.0000E+00  0.0000E+00  0.0000E+00  0.1773E+01  0.1741E-04  0.0000E+00  0.0000E+00  0.0000E+00  0.0000E+00  0.0000E+00  0.0000E+00  0.0000E+00  0.0000E+00  0.0000E+00  0.0000E+00  0.0000E+00  0.0000E+00  0.0000E+00  0.0000E+00
REACH    3        0     5  0.1834E+01  0.3143E-03  0.3018E-03  0.1249E-04  0.0000E+00  0.2647E-06  0.1281E-06  0.3987E-03  0.5601E-05  0.2038E-05  0.1680E-04  0.6388E-05  0.2099E+01  0.2014E+01  0.0000E+00  0.2861E-02  0.0000E+00  0.3038E-06  0.5607E-05  0.6614E-05  0.5829E-09  0.0000E+00  0.0000E+00  0.0000E+00  0.9596E+01  0.9119E+01  0.0000E+00  0.0000E+00  0.0000E+00  0.0000E+00  0.0000E+00  0.0000E+00  0.0000E+00  0.0000E+00  0.0000E+00  0.0000E+00  0.0000E+00  0.0000E+00  0.0000E+00  0.0000E+00  0.0000E+00  0.0000E+00  0.0000E+00  0.2017E+01  0.1300E-04  0.0000E+00  0.0000E+00  0.0000E+00  0.0000E+00  0.0000E+00  0.0000E+00  0.0000E+00  0.0000E+00  0.0000E+00  0.0000E+00  0.0000E+00  0.0000E+00  0.0000E+00  0.0000E+00
REACH    1        0     6  0.5790E+01  0.8013E-03  0.7263E-03  0.9121E-04  0.0000E+00  0.3223E-06  0.0000E+00  0.0000E+00  0.9975E-05  0.4737E-05  0.3017E-04  0.1448E-04  0.4193E+01  0.3790E+01  0.4211E-02  0.1297E-01  0.1770E-05  0.2083E-03  0.2499E-04  0.1116E-03  0.2654E-09  0.0000E+00  0.0000E+00  0.0000E+00  0.2410E+02  0.2176E+02  0.0000E+00  0.0000E+00  0.0000E+00  0.0000E+00  0.0000E+00  0.0000E+00  0.0000E+00  0.0000E+00  0.0000E+00  0.0000E+00  0.0000E+00  0.0000E+00  0.0000E+00  0.0000E+00  0.0000E+00  0.0000E+00  0.0000E+00  0.3803E+01  0.1261E-03  0.0000E+00  0.0000E+00  0.0000E+00  0.0000E+00  0.0000E+00  0.0000E+00  0.0000E+00  0.0000E+00  0.0000E+00  0.0000E+00  0.0000E+00  0.0000E+00  0.0000E+00  0.0000E+00
REACH    2        0     6  0.2233E+01  0.2769E-03  0.2512E-03  0.3102E-04  0.0000E+00  0.9597E-07  0.3839E-07  0.1341E-02  0.6314E-05  0.2441E-05  0.1894E-04  0.7483E-05  0.1421E+01  0.1286E+01  0.0000E+00  0.1283E-02  0.0000E+00  0.1608E-05  0.6321E-05  0.1148E-04  0.4018E-09  0.0000E+00  0.0000E+00  0.0000E+00  0.8386E+01  0.7530E+01  0.0000E+00  0.0000E+00  0.0000E+00  0.0000E+00  0.0000E+00  0.0000E+00  0.0000E+00  0.0000E+00  0.0000E+00  0.0000E+00  0.0000E+00  0.0000E+00  0.0000E+00  0.0000E+00  0.0000E+00  0.0000E+00  0.0000E+00  0.1287E+01  0.1896E-04  0.0000E+00  0.0000E+00  0.0000E+00  0.0000E+00  0.0000E+00  0.0000E+00  0.0000E+00  0.0000E+00  0.0000E+00  0.0000E+00  0.0000E+00  0.0000E+00  0.0000E+00  0.0000E+00
REACH    3        0     6  0.1834E+01  0.2949E-03  0.2729E-03  0.2193E-04  0.0000E+00  0.2562E-06  0.1879E-06  0.5664E-02  0.5421E-05  0.2539E-05  0.1626E-04  0.7699E-05  0.1585E+01  0.1464E+01  0.0000E+00  0.2928E-02  0.0000E+00  0.1625E-06  0.5426E-05  0.8509E-05  0.3070E-09  0.0000E+00  0.0000E+00  0.0000E+00  0.8930E+01  0.8176E+01  0.0000E+00  0.0000E+00  0.0000E+00  0.0000E+00  0.0000E+00  0.0000E+00  0.0000E+00  0.0000E+00  0.0000E+00  0.0000E+00  0.0000E+00  0.0000E+00  0.0000E+00  0.0000E+00  0.0000E+00  0.0000E+00  0.0000E+00  0.1467E+01  0.1621E-04  0.0000E+00  0.0000E+00  0.0000E+00  0.0000E+00  0.0000E+00  0.0000E+00  0.0000E+00  0.0000E+00  0.0000E+00  0.0000E+00  0.0000E+00  0.0000E+00  0.0000E+00  0.0000E+00
REACH    1        0     7  0.5790E+01  0.2676E-06  0.0000E+00  0.2676E-06  0.0000E+00  0.9922E-07  0.0000E+00  0.0000E+00  0.5162E-05  0.0000E+00  0.1548E-04  0.0000E+00  0.1018E-02  0.0000E+00  0.0000E+00  0.0000E+00  0.0000E+00  0.0000E+00  0.5167E-05  0.0000E+00  0.9818E-10  0.0000E+00  0.0000E+00  0.0000E+00  0.3335E-02  0.0000E+00  0.0000E+00  0.0000E+00  0.0000E+00  0.0000E+00  0.0000E+00  0.0000E+00  0.0000E+00  0.0000E+00  0.0000E+00  0.0000E+00  0.0000E+00  0.0000E+00  0.0000E+00  0.0000E+00  0.0000E+00  0.0000E+00  0.0000E+00  0.0000E+00  0.0000E+00  0.0000E+00  0.0000E+00  0.0000E+00  0.0000E+00  0.0000E+00  0.0000E+00  0.0000E+00  0.0000E+00  0.0000E+00  0.0000E+00  0.0000E+00  0.0000E+00  0.0000E+00  0.0000E+00
REACH    2        0     7  0.2233E+01  0.2725E-06  0.0000E+00  0.2725E-06  0.0000E+00  0.9917E-07  0.0000E+00  0.0000E+00  0.6525E-05  0.0000E+00  0.1957E-04  0.0000E+00  0.9276E-03  0.0000E+00  0.0000E+00  0.0000E+00  0.0000E+00  0.0000E+00  0.6532E-05  0.0000E+00  0.1218E-09  0.0000E+00  0.0000E+00  0.0000E+00  0.3046E-02  0.0000E+00  0.0000E+00  0.0000E+00  0.0000E+00  0.0000E+00  0.0000E+00  0.0000E+00  0.0000E+00  0.0000E+00  0.0000E+00  0.0000E+00  0.0000E+00  0.0000E+00  0.0000E+00  0.0000E+00  0.0000E+00  0.0000E+00  0.0000E+00  0.0000E+00  0.0000E+00  0.0000E+00  0.0000E+00  0.0000E+00  0.0000E+00  0.0000E+00  0.0000E+00  0.0000E+00  0.0000E+00  0.0000E+00  0.0000E+00  0.0000E+00  0.0000E+00  0.0000E+00  0.0000E+00
REACH    3        0     7  0.1834E+01  0.2857E-06  0.0000E+00  0.2857E-06  0.0000E+00  0.2647E-06  0.0000E+00  0.0000E+00  0.5601E-05  0.0000E+00  0.1680E-04  0.0000E+00  0.1122E-02  0.0000E+00  0.0000E+00  0.0000E+00  0.0000E+00  0.0000E+00  0.5607E-05  0.0000E+00  0.9478E-10  0.0000E+00  0.0000E+00  0.0000E+00  0.3281E-02  0.0000E+00  0.0000E+00  0.0000E+00  0.0000E+00  0.0000E+00  0.0000E+00  0.0000E+00  0.0000E+00  0.0000E+00  0.0000E+00  0.0000E+00  0.0000E+00  0.0000E+00  0.0000E+00  0.0000E+00  0.0000E+00  0.0000E+00  0.0000E+00  0.0000E+00  0.0000E+00  0.0000E+00  0.0000E+00  0.0000E+00  0.0000E+00  0.0000E+00  0.0000E+00  0.0000E+00  0.0000E+00  0.0000E+00  0.0000E+00  0.0000E+00  0.0000E+00  0.0000E+00  0.0000E+00
REACH    1        0     8  0.5790E+01  0.2448E-02  0.2388E-02  0.4527E-04  0.0000E+00  0.1190E+02  0.2836E+00  0.8061E+01  0.2831E+02  0.2813E+02  0.6163E+01  0.6112E+01  0.1851E+02  0.1810E+02  0.4135E-02  0.1392E-01  0.3678E-05  0.6044E-04  0.4752E-02  0.1519E-01  0.1736E-01  0.0000E+00  0.3872E+02  0.3743E+02  0.6623E+02  0.5517E+02  0.0000E+00  0.0000E+00  0.0000E+00  0.0000E+00  0.0000E+00  0.0000E+00  0.0000E+00  0.0000E+00  0.0000E+00  0.0000E+00  0.0000E+00  0.0000E+00  0.0000E+00  0.0000E+00  0.0000E+00  0.0000E+00  0.0000E+00  0.4625E+02  0.6128E+01  0.0000E+00  0.0000E+00  0.0000E+00  0.0000E+00  0.0000E+00  0.0000E+00  0.0000E+00  0.0000E+00  0.0000E+00  0.0000E+00  0.0000E+00  0.0000E+00  0.0000E+00  0.0000E+00
REACH    2        0     8  0.2233E+01  0.8119E-03  0.7924E-03  0.1480E-04  0.0000E+00  0.4433E+01  0.4327E+01  0.2087E+03  0.1098E+02  0.1091E+02  0.2392E+01  0.2373E+01  0.5920E+01  0.5791E+01  0.0000E+00  0.1632E-02  0.0000E+00  0.3678E-05  0.9185E-03  0.2917E-02  0.2090E-01  0.0000E+00  0.1833E+02  0.1774E+02  0.2585E+02  0.1759E+02  0.0000E+00  0.0000E+00  0.0000E+00  0.0000E+00  0.0000E+00  0.0000E+00  0.0000E+00  0.0000E+00  0.0000E+00  0.0000E+00  0.0000E+00  0.0000E+00  0.0000E+00  0.0000E+00  0.0000E+00  0.0000E+00  0.0000E+00  0.1670E+02  0.2376E+01  0.0000E+00  0.0000E+00  0.0000E+00  0.0000E+00  0.0000E+00  0.0000E+00  0.0000E+00  0.0000E+00  0.0000E+00  0.0000E+00  0.0000E+00  0.0000E+00  0.0000E+00  0.0000E+00
REACH    3        0     8  0.1834E+01  0.8577E-03  0.8471E-03  0.1062E-04  0.0000E+00  0.2403E+01  0.2367E+01  0.1099E+03  0.5667E+01  0.5646E+01  0.1235E+01  0.1229E+01  0.6794E+01  0.6713E+01  0.0000E+00  0.2503E-02  0.0000E+00  0.0000E+00  0.3732E-03  0.1145E-02  0.5849E-02  0.0000E+00  0.5317E+01  0.5211E+01  0.2755E+02  0.2282E+02  0.0000E+00  0.0000E+00  0.0000E+00  0.0000E+00  0.0000E+00  0.0000E+00  0.0000E+00  0.0000E+00  0.0000E+00  0.0000E+00  0.0000E+00  0.0000E+00  0.0000E+00  0.0000E+00  0.0000E+00  0.0000E+00  0.0000E+00  0.1236E+02  0.1230E+01  0.0000E+00  0.0000E+00  0.0000E+00  0.0000E+00  0.0000E+00  0.0000E+00  0.0000E+00  0.0000E+00  0.0000E+00  0.0000E+00  0.0000E+00  0.0000E+00  0.0000E+00  0.0000E+00
REACH    1        0     9  0.5790E+01  0.4541E-02  0.4456E-02  0.9069E-04  0.0000E+00  0.1362E+03  0.4006E+00  0.1510E+02  0.2953E+03  0.2924E+03  0.6430E+02  0.6347E+02  0.1135E+02  0.1111E+02  0.3739E+00  0.1159E+01  0.5104E-04  0.2999E-02  0.3729E-01  0.1196E+00  0.9172E+00  0.0000E+00  0.2242E+04  0.2122E+04  0.1066E+03  0.8669E+02  0.0000E+00  0.0000E+00  0.0000E+00  0.0000E+00  0.0000E+00  0.0000E+00  0.0000E+00  0.0000E+00  0.0000E+00  0.0000E+00  0.0000E+00  0.0000E+00  0.0000E+00  0.0000E+00  0.0000E+00  0.0000E+00  0.0000E+00  0.3047E+03  0.6359E+02  0.0000E+00  0.0000E+00  0.0000E+00  0.0000E+00  0.0000E+00  0.0000E+00  0.0000E+00  0.0000E+00  0.0000E+00  0.0000E+00  0.0000E+00  0.0000E+00  0.0000E+00  0.0000E+00
REACH    2        0     9  0.2233E+01  0.1517E-02  0.1492E-02  0.2969E-04  0.0000E+00  0.4596E+02  0.4513E+02  0.1676E+04  0.1042E+03  0.1036E+03  0.2271E+02  0.2255E+02  0.3560E+01  0.3489E+01  0.0000E+00  0.2435E+00  0.0000E+00  0.4282E-04  0.6582E-02  0.2052E-01  0.9986E+00  0.0000E+00  0.9376E+03  0.9127E+03  0.4380E+02  0.2953E+02  0.0000E+00  0.0000E+00  0.0000E+00  0.0000E+00  0.0000E+00  0.0000E+00  0.0000E+00  0.0000E+00  0.0000E+00  0.0000E+00  0.0000E+00  0.0000E+00  0.0000E+00  0.0000E+00  0.0000E+00  0.0000E+00  0.0000E+00  0.1073E+03  0.2257E+02  0.0000E+00  0.0000E+00  0.0000E+00  0.0000E+00  0.0000E+00  0.0000E+00  0.0000E+00  0.0000E+00  0.0000E+00  0.0000E+00  0.0000E+00  0.0000E+00  0.0000E+00  0.0000E+00
REACH    3        0     9  0.1834E+01  0.1575E-02  0.1556E-02  0.1897E-04  0.0000E+00  0.3825E+02  0.3779E+02  0.1465E+04  0.8179E+02  0.8148E+02  0.1783E+02  0.1774E+02  0.4193E+01  0.4125E+01  0.0000E+00  0.1304E+00  0.0000E+00  0.8225E-05  0.3866E-02  0.1188E-01  0.5380E+00  0.3451E-01  0.5070E+03  0.4981E+03  0.4662E+02  0.3334E+02  0.0000E+00  0.0000E+00  0.0000E+00  0.0000E+00  0.0000E+00  0.0000E+00  0.0000E+00  0.0000E+00  0.0000E+00  0.0000E+00  0.0000E+00  0.0000E+00  0.0000E+00  0.0000E+00  0.0000E+00  0.0000E+00  0.0000E+00  0.8573E+02  0.1775E+02  0.0000E+00  0.0000E+00  0.0000E+00  0.0000E+00  0.0000E+00  0.0000E+00  0.0000E+00  0.0000E+00  0.0000E+00  0.0000E+00  0.0000E+00  0.0000E+00  0.0000E+00  0.0000E+00
REACH    1        0    10  0.5790E+01  0.1713E-01  0.1706E-01  0.5383E-04  0.0000E+00  0.2272E+04  0.4246E+01  0.4636E+02  0.5573E+04  0.5553E+04  0.1214E+04  0.1208E+04  0.1128E+02  0.1085E+02  0.8359E+00  0.2624E+01  0.3977E-04  0.3486E-02  0.5790E+00  0.1794E+01  0.6945E+02  0.3088E+02  0.7905E+05  0.7743E+05  0.2931E+03  0.1887E+03  0.0000E+00  0.0000E+00  0.0000E+00  0.0000E+00  0.0000E+00  0.0000E+00  0.0000E+00  0.0000E+00  0.0000E+00  0.0000E+00  0.0000E+00  0.0000E+00  0.0000E+00  0.0000E+00  0.0000E+00  0.0000E+00  0.0000E+00  0.5567E+04  0.1210E+04  0.0000E+00  0.0000E+00  0.0000E+00  0.0000E+00  0.0000E+00  0.0000E+00  0.0000E+00  0.0000E+00  0.0000E+00  0.0000E+00  0.0000E+00  0.0000E+00  0.0000E+00  0.0000E+00
REACH    2        0    10  0.2233E+01  0.5947E-02  0.5923E-02  0.1831E-04  0.0000E+00  0.7194E+03  0.7104E+03  0.1057E+05  0.1857E+04  0.1852E+04  0.4047E+03  0.4032E+03  0.5169E+01  0.5015E+01  0.0000E+00  0.3242E+00  0.0000E+00  0.2479E-04  0.9799E-01  0.2998E+00  0.3617E+02  0.1682E+02  0.2864E+05  0.2817E+05  0.1560E+03  0.6727E+02  0.0000E+00  0.0000E+00  0.0000E+00  0.0000E+00  0.0000E+00  0.0000E+00  0.0000E+00  0.0000E+00  0.0000E+00  0.0000E+00  0.0000E+00  0.0000E+00  0.0000E+00  0.0000E+00  0.0000E+00  0.0000E+00  0.0000E+00  0.1857E+04  0.4035E+03  0.0000E+00  0.0000E+00  0.0000E+00  0.0000E+00  0.0000E+00  0.0000E+00  0.0000E+00  0.0000E+00  0.0000E+00  0.0000E+00  0.0000E+00  0.0000E+00  0.0000E+00  0.0000E+00
REACH    3        0    10  0.1834E+01  0.5736E-02  0.5720E-02  0.1204E-04  0.0000E+00  0.7362E+03  0.7290E+03  0.1032E+05  0.1774E+04  0.1771E+04  0.3867E+03  0.3856E+03  0.3221E+01  0.3142E+01  0.0000E+00  0.5117E+00  0.0000E+00  0.1497E-04  0.6769E-01  0.2070E+00  0.3004E+02  0.1855E+02  0.2396E+05  0.2366E+05  0.1592E+03  0.7631E+02  0.0000E+00  0.0000E+00  0.0000E+00  0.0000E+00  0.0000E+00  0.0000E+00  0.0000E+00  0.0000E+00  0.0000E+00  0.0000E+00  0.0000E+00  0.0000E+00  0.0000E+00  0.0000E+00  0.0000E+00  0.0000E+00  0.0000E+00  0.1774E+04  0.3858E+03  0.0000E+00  0.0000E+00  0.0000E+00  0.0000E+00  0.0000E+00  0.0000E+00  0.0000E+00  0.0000E+00  0.0000E+00  0.0000E+00  0.0000E+00  0.0000E+00  0.0000E+00  0.0000E+00
REACH    1        0    11  0.5790E+01  0.1069E+00  0.1069E+00  0.3988E-04  0.0000E+00  0.3837E+05  0.5244E+02  0.1348E+03  0.5809E+05  0.5799E+05  0.1268E+05  0.1265E+05  0.3150E+03  0.3111E+03  0.1304E+02  0.3988E+02  0.1919E-03  0.1295E-01  0.6980E+01  0.2119E+02  0.1382E+04  0.1153E+04  0.2000E+07  0.1977E+07  0.7656E+03  0.1584E+03  0.0000E+00  0.0000E+00  0.0000E+00  0.0000E+00  0.0000E+00  0.0000E+00  0.0000E+00  0.0000E+00  0.0000E+00  0.0000E+00  0.0000E+00  0.0000E+00  0.0000E+00  0.0000E+00  0.0000E+00  0.0000E+00  0.0000E+00  0.5834E+05  0.1267E+05  0.0000E+00  0.0000E+00  0.0000E+00  0.0000E+00  0.0000E+00  0.0000E+00  0.0000E+00  0.0000E+00  0.0000E+00  0.0000E+00  0.0000E+00  0.0000E+00  0.0000E+00  0.0000E+00
REACH    2        0    11  0.2233E+01  0.3905E-01  0.3903E-01  0.1317E-04  0.0000E+00  0.1164E+05  0.1156E+05  0.4144E+05  0.1946E+05  0.1943E+05  0.4247E+04  0.4240E+04  0.1118E+03  0.1109E+03  0.0000E+00  0.7563E+01  0.0000E+00  0.1478E-03  0.1170E+01  0.3523E+01  0.5256E+03  0.4430E+03  0.6577E+06  0.6522E+06  0.6568E+03  0.7371E+02  0.0000E+00  0.0000E+00  0.0000E+00  0.0000E+00  0.0000E+00  0.0000E+00  0.0000E+00  0.0000E+00  0.0000E+00  0.0000E+00  0.0000E+00  0.0000E+00  0.0000E+00  0.0000E+00  0.0000E+00  0.0000E+00  0.0000E+00  0.1955E+05  0.4243E+04  0.0000E+00  0.0000E+00  0.0000E+00  0.0000E+00  0.0000E+00  0.0000E+00  0.0000E+00  0.0000E+00  0.0000E+00  0.0000E+00  0.0000E+00  0.0000E+00  0.0000E+00  0.0000E+00
REACH    3        0    11  0.1834E+01  0.3483E-01  0.3482E-01  0.8454E-05  0.0000E+00  0.1328E+05  0.1321E+05  0.4728E+05  0.1975E+05  0.1973E+05  0.4312E+04  0.4306E+04  0.1052E+03  0.1046E+03  0.0000E+00  0.5478E+01  0.0000E+00  0.4404E-04  0.8679E+00  0.2629E+01  0.5103E+03  0.4544E+03  0.6784E+06  0.6741E+06  0.6439E+03  0.8601E+02  0.0000E+00  0.0000E+00  0.0000E+00  0.0000E+00  0.0000E+00  0.0000E+00  0.0000E+00  0.0000E+00  0.0000E+00  0.0000E+00  0.0000E+00  0.0000E+00  0.0000E+00  0.0000E+00  0.0000E+00  0.0000E+00  0.0000E+00  0.1984E+05  0.4309E+04  0.0000E+00  0.0000E+00  0.0000E+00  0.0000E+00  0.0000E+00  0.0000E+00  0.0000E+00  0.0000E+00  0.0000E+00  0.0000E+00  0.0000E+00  0.0000E+00  0.0000E+00  0.0000E+00
REACH    1        0    12  0.5790E+01  0.2491E+00  0.2490E+00  0.3695E-04  0.0000E+00  0.1047E+06  0.1875E+03  0.1995E+03  0.4151E+05  0.4147E+05  0.9193E+04  0.9176E+04  0.5517E+03  0.5498E+03  0.1395E+02  0.4182E+02  0.1272E-03  0.8850E-02  0.7740E+01  0.1972E+02  0.1241E+04  0.1131E+04  0.5750E+07  0.5694E+07  0.1299E+04  0.2058E+03  0.0000E+00  0.0000E+00  0.0000E+00  0.0000E+00  0.0000E+00  0.0000E+00  0.0000E+00  0.0000E+00  0.0000E+00  0.0000E+00  0.0000E+00  0.0000E+00  0.0000E+00  0.0000E+00  0.0000E+00  0.0000E+00  0.0000E+00  0.4206E+05  0.9196E+04  0.0000E+00  0.0000E+00  0.0000E+00  0.0000E+00  0.0000E+00  0.0000E+00  0.0000E+00  0.0000E+00  0.0000E+00  0.0000E+00  0.0000E+00  0.0000E+00  0.0000E+00  0.0000E+00
REACH    2        0    12  0.2233E+01  0.9212E-01  0.9208E-01  0.1227E-04  0.0000E+00  0.3091E+05  0.3075E+05  0.5554E+05  0.1677E+05  0.1676E+05  0.3705E+04  0.3700E+04  0.1889E+03  0.1884E+03  0.0000E+00  0.8111E+01  0.0000E+00  0.8252E-04  0.1586E+01  0.4294E+01  0.5266E+03  0.4838E+03  0.1830E+07  0.1817E+07  0.1222E+04  0.1099E+03  0.0000E+00  0.0000E+00  0.0000E+00  0.0000E+00  0.0000E+00  0.0000E+00  0.0000E+00  0.0000E+00  0.0000E+00  0.0000E+00  0.0000E+00  0.0000E+00  0.0000E+00  0.0000E+00  0.0000E+00  0.0000E+00  0.0000E+00  0.1696E+05  0.3704E+04  0.0000E+00  0.0000E+00  0.0000E+00  0.0000E+00  0.0000E+00  0.0000E+00  0.0000E+00  0.0000E+00  0.0000E+00  0.0000E+00  0.0000E+00  0.0000E+00  0.0000E+00  0.0000E+00
REACH    3        0    12  0.1834E+01  0.8090E-01  0.8087E-01  0.7947E-05  0.0000E+00  0.3712E+05  0.3696E+05  0.6492E+05  0.1364E+05  0.1363E+05  0.3024E+04  0.3020E+04  0.1880E+03  0.1877E+03  0.0000E+00  0.5841E+01  0.0000E+00  0.4464E-04  0.9363E+00  0.2575E+01  0.4296E+03  0.4049E+03  0.2005E+07  0.1994E+07  0.1149E+04  0.9896E+02  0.0000E+00  0.0000E+00  0.0000E+00  0.0000E+00  0.0000E+00  0.0000E+00  0.0000E+00  0.0000E+00  0.0000E+00  0.0000E+00  0.0000E+00  0.0000E+00  0.0000E+00  0.0000E+00  0.0000E+00  0.0000E+00  0.0000E+00  0.1382E+05  0.3023E+04  0.0000E+00  0.0000E+00  0.0000E+00  0.0000E+00  0.0000E+00  0.0000E+00  0.0000E+00  0.0000E+00  0.0000E+00  0.0000E+00  0.0000E+00  0.0000E+00  0.0000E+00  0.0000E+00
REACH    1        0  1981  0.5790E+01  0.4598E-01  0.4591E-01  0.5095E-04  0.0000E+00  0.1455E+06  0.2449E+03  0.4851E+02  0.1055E+06  0.1053E+06  0.2315E+05  0.2310E+05  0.9179E+03  0.9101E+03  0.2822E+02  0.8552E+02  0.4193E-03  0.2891E-01  0.1534E+02  0.4284E+02  0.2693E+04  0.2315E+04  0.7831E+07  0.7750E+07  0.2582E+04  0.7415E+03  0.0000E+00  0.0000E+00  0.0000E+00  0.0000E+00  0.0000E+00  0.0000E+00  0.0000E+00  0.0000E+00  0.0000E+00  0.0000E+00  0.0000E+00  0.0000E+00  0.0000E+00  0.0000E+00  0.0000E+00  0.0000E+00  0.0000E+00  0.1063E+06  0.2314E+05  0.0000E+00  0.0000E+00  0.0000E+00  0.0000E+00  0.0000E+00  0.0000E+00  0.0000E+00  0.0000E+00  0.0000E+00  0.0000E+00  0.0000E+00  0.0000E+00  0.0000E+00  0.0000E+00
REACH    2        0  1981  0.2233E+01  0.1686E-01  0.1684E-01  0.1732E-04  0.0000E+00  0.4331E+05  0.4306E+05  0.1314E+05  0.3820E+05  0.3816E+05  0.8382E+04  0.8368E+04  0.3187E+03  0.3167E+03  0.0000E+00  0.1625E+02  0.0000E+00  0.3069E-03  0.2861E+01  0.8141E+01  0.1089E+04  0.9436E+03  0.2518E+07  0.2499E+07  0.2122E+04  0.3141E+03  0.0000E+00  0.0000E+00  0.0000E+00  0.0000E+00  0.0000E+00  0.0000E+00  0.0000E+00  0.0000E+00  0.0000E+00  0.0000E+00  0.0000E+00  0.0000E+00  0.0000E+00  0.0000E+00  0.0000E+00  0.0000E+00  0.0000E+00  0.3849E+05  0.8376E+04  0.0000E+00  0.0000E+00  0.0000E+00  0.0000E+00  0.0000E+00  0.0000E+00  0.0000E+00  0.0000E+00  0.0000E+00  0.0000E+00  0.0000E+00  0.0000E+00  0.0000E+00  0.0000E+00
REACH    3        0  1981  0.1834E+01  0.1499E-01  0.1498E-01  0.1176E-04  0.0000E+00  0.5118E+05  0.5095E+05  0.1489E+05  0.3525E+05  0.3522E+05  0.7742E+04  0.7731E+04  0.3112E+03  0.3098E+03  0.0000E+00  0.1197E+02  0.0000E+00  0.1123E-03  0.1876E+01  0.5424E+01  0.9705E+03  0.8779E+03  0.2708E+07  0.2692E+07  0.2045E+04  0.3351E+03  0.0000E+00  0.0000E+00  0.0000E+00  0.0000E+00  0.0000E+00  0.0000E+00  0.0000E+00  0.0000E+00  0.0000E+00  0.0000E+00  0.0000E+00  0.0000E+00  0.0000E+00  0.0000E+00  0.0000E+00  0.0000E+00  0.0000E+00  0.3554E+05  0.7737E+04  0.0000E+00  0.0000E+00  0.0000E+00  0.0000E+00  0.0000E+00  0.0000E+00  0.0000E+00  0.0000E+00  0.0000E+00  0.0000E+00  0.0000E+00  0.0000E+00  0.0000E+00  0.0000E+00
REACH    1        0     1  0.5790E+01  0.2994E+00  0.2994E+00  0.2721E-04  0.0000E+00  0.1092E+06  0.2297E+03  0.2271E+03  0.1818E+05  0.1816E+05  0.4016E+04  0.4009E+04  0.4528E+03  0.4524E+03  0.4667E+01  0.1416E+02  0.1042E-04  0.4901E-02  0.4304E+01  0.1028E+02  0.4339E+03  0.3861E+03  0.5636E+07  0.5591E+07  0.1879E+04  0.2751E+03  0.0000E+00  0.0000E+00  0.0000E+00  0.0000E+00  0.0000E+00  0.0000E+00  0.0000E+00  0.0000E+00  0.0000E+00  0.0000E+00  0.0000E+00  0.0000E+00  0.0000E+00  0.0000E+00  0.0000E+00  0.0000E+00  0.0000E+00  0.1863E+05  0.4020E+04  0.0000E+00  0.0000E+00  0.0000E+00  0.0000E+00  0.0000E+00  0.0000E+00  0.0000E+00  0.0000E+00  0.0000E+00  0.0000E+00  0.0000E+00  0.0000E+00  0.0000E+00  0.0000E+00
REACH    2        0     1  0.2233E+01  0.1128E+00  0.1128E+00  0.9038E-05  0.0000E+00  0.3223E+05  0.3206E+05  0.5902E+05  0.7057E+04  0.7052E+04  0.1561E+04  0.1559E+04  0.1524E+03  0.1524E+03  0.0000E+00  0.3064E+01  0.0000E+00  0.1042E-04  0.1009E+01  0.2486E+01  0.1833E+03  0.1658E+03  0.1794E+07  0.1784E+07  0.1890E+04  0.1510E+03  0.0000E+00  0.0000E+00  0.0000E+00  0.0000E+00  0.0000E+00  0.0000E+00  0.0000E+00  0.0000E+00  0.0000E+00  0.0000E+00  0.0000E+00  0.0000E+00  0.0000E+00  0.0000E+00  0.0000E+00  0.0000E+00  0.0000E+00  0.7207E+04  0.1561E+04  0.0000E+00  0.0000E+00  0.0000E+00  0.0000E+00  0.0000E+00  0.0000E+00  0.0000E+00  0.0000E+00  0.0000E+00  0.0000E+00  0.0000E+00  0.0000E+00  0.0000E+00  0.0000E+00
REACH    3        0     1  0.1834E+01  0.9554E-01  0.9554E-01  0.5851E-05  0.0000E+00  0.3875E+05  0.3859E+05  0.7065E+05  0.5863E+04  0.5859E+04  0.1296E+04  0.1295E+04  0.1558E+03  0.1558E+03  0.0000E+00  0.1602E+01  0.0000E+00  0.0000E+00  0.4849E+00  0.1287E+01  0.1480E+03  0.1370E+03  0.1969E+07  0.1960E+07  0.1655E+04  0.1359E+03  0.0000E+00  0.0000E+00  0.0000E+00  0.0000E+00  0.0000E+00  0.0000E+00  0.0000E+00  0.0000E+00  0.0000E+00  0.0000E+00  0.0000E+00  0.0000E+00  0.0000E+00  0.0000E+00  0.0000E+00  0.0000E+00  0.0000E+00  0.6016E+04  0.1296E+04  0.0000E+00  0.0000E+00  0.0000E+00  0.0000E+00  0.0000E+00  0.0000E+00  0.0000E+00  0.0000E+00  0.0000E+00  0.0000E+00  0.0000E+00  0.0000E+00  0.0000E+00  0.0000E+00
REACH    1        0     2  0.5790E+01  0.6341E+00  0.6341E+00  0.5467E-04  0.0000E+00  0.2970E+06  0.5344E+03  0.3273E+03  0.1765E+04  0.1764E+04  0.4048E+03  0.4043E+03  0.3596E+03  0.3596E+03  0.4138E+00  0.1178E+01  0.0000E+00  0.1789E-03  0.2281E+01  0.2828E+01  0.4528E+02  0.4207E+02  0.1509E+08  0.1499E+08  0.2975E+04  0.7081E+03  0.0000E+00  0.0000E+00  0.0000E+00  0.0000E+00  0.0000E+00  0.0000E+00  0.0000E+00  0.0000E+00  0.0000E+00  0.0000E+00  0.0000E+00  0.0000E+00  0.0000E+00  0.0000E+00  0.0000E+00  0.0000E+00  0.0000E+00  0.2125E+04  0.4072E+03  0.0000E+00  0.0000E+00  0.0000E+00  0.0000E+00  0.0000E+00  0.0000E+00  0.0000E+00  0.0000E+00  0.0000E+00  0.0000E+00  0.0000E+00  0.0000E+00  0.0000E+00  0.0000E+00
REACH    2        0     2  0.2233E+01  0.2415E+00  0.2415E+00  0.1860E-04  0.0000E+00  0.8764E+05  0.8729E+05  0.8474E+05  0.1153E+04  0.1152E+04  0.2609E+03  0.2607E+03  0.1222E+03  0.1222E+03  0.0000E+00  0.3226E+00  0.0000E+00  0.0000E+00  0.1143E+01  0.1399E+01  0.3129E+02  0.2937E+02  0.4762E+07  0.4737E+07  0.2987E+04  0.2974E+03  0.0000E+00  0.0000E+00  0.0000E+00  0.0000E+00  0.0000E+00  0.0000E+00  0.0000E+00  0.0000E+00  0.0000E+00  0.0000E+00  0.0000E+00  0.0000E+00  0.0000E+00  0.0000E+00  0.0000E+00  0.0000E+00  0.0000E+00  0.1275E+04  0.2621E+03  0.0000E+00  0.0000E+00  0.0000E+00  0.0000E+00  0.0000E+00  0.0000E+00  0.0000E+00  0.0000E+00  0.0000E+00  0.0000E+00  0.0000E+00  0.0000E+00  0.0000E+00  0.0000E+00
REACH    3        0     2  0.1834E+01  0.2018E+00  0.2018E+00  0.1210E-04  0.0000E+00  0.1053E+06  0.1049E+06  0.1018E+06  0.3025E+03  0.3025E+03  0.7192E+02  0.7189E+02  0.1227E+03  0.1227E+03  0.0000E+00  0.9116E-01  0.0000E+00  0.0000E+00  0.3206E+00  0.3775E+00  0.8059E+01  0.7677E+01  0.5274E+07  0.5253E+07  0.2578E+04  0.2313E+03  0.0000E+00  0.0000E+00  0.0000E+00  0.0000E+00  0.0000E+00  0.0000E+00  0.0000E+00  0.0000E+00  0.0000E+00  0.0000E+00  0.0000E+00  0.0000E+00  0.0000E+00  0.0000E+00  0.0000E+00  0.0000E+00  0.0000E+00  0.4253E+03  0.7226E+02  0.0000E+00  0.0000E+00  0.0000E+00  0.0000E+00  0.0000E+00  0.0000E+00  0.0000E+00  0.0000E+00  0.0000E+00  0.0000E+00  0.0000E+00  0.0000E+00  0.0000E+00  0.0000E+00
REACH    1        0     3  0.5790E+01  0.3009E+00  0.3009E+00  0.5443E-04  0.0000E+00  0.8937E+05  0.2177E+03  0.2300E+03  0.1633E+03  0.1631E+03  0.3678E+02  0.3670E+02  0.1560E+03  0.1560E+03  0.7169E-01  0.2088E+00  0.0000E+00  0.0000E+00  0.4946E+00  0.5672E+00  0.2619E+01  0.2298E+01  0.4257E+07  0.4220E+07  0.3182E+04  0.1648E+04  0.0000E+00  0.0000E+00  0.0000E+00  0.0000E+00  0.0000E+00  0.0000E+00  0.0000E+00  0.0000E+00  0.0000E+00  0.0000E+00  0.0000E+00  0.0000E+00  0.0000E+00  0.0000E+00  0.0000E+00  0.0000E+00  0.0000E+00  0.3193E+03  0.3727E+02  0.0000E+00  0.0000E+00  0.0000E+00  0.0000E+00  0.0000E+00  0.0000E+00  0.0000E+00  0.0000E+00  0.0000E+00  0.0000E+00  0.0000E+00  0.0000E+00  0.0000E+00  0.0000E+00
REACH    2        0     3  0.2233E+01  0.1180E+00  0.1180E+00  0.1832E-04  0.0000E+00  0.2636E+05  0.2623E+05  0.3662E+05  0.1093E+03  0.1092E+03  0.2443E+02  0.2439E+02  0.5527E+02  0.5527E+02  0.0000E+00  0.5450E-01  0.0000E+00  0.0000E+00  0.2783E+00  0.3113E+00  0.1909E+01  0.1712E+01  0.1331E+07  0.1322E+07  0.2467E+04  0.7836E+03  0.0000E+00  0.0000E+00  0.0000E+00  0.0000E+00  0.0000E+00  0.0000E+00  0.0000E+00  0.0000E+00  0.0000E+00  0.0000E+00  0.0000E+00  0.0000E+00  0.0000E+00  0.0000E+00  0.0000E+00  0.0000E+00  0.0000E+00  0.1646E+03  0.2470E+02  0.0000E+00  0.0000E+00  0.0000E+00  0.0000E+00  0.0000E+00  0.0000E+00  0.0000E+00  0.0000E+00  0.0000E+00  0.0000E+00  0.0000E+00  0.0000E+00  0.0000E+00  0.0000E+00
REACH    3        0     3  0.1834E+01  0.9402E-01  0.9401E-01  0.1183E-04  0.0000E+00  0.3170E+05  0.3159E+05  0.5014E+05  0.1533E+02  0.1532E+02  0.3736E+01  0.3732E+01  0.5191E+02  0.5191E+02  0.0000E+00  0.1720E-01  0.0000E+00  0.0000E+00  0.5750E-01  0.6228E-01  0.2639E+00  0.2403E+00  0.1493E+07  0.1486E+07  0.1918E+04  0.5706E+03  0.0000E+00  0.0000E+00  0.0000E+00  0.0000E+00  0.0000E+00  0.0000E+00  0.0000E+00  0.0000E+00  0.0000E+00  0.0000E+00  0.0000E+00  0.0000E+00  0.0000E+00  0.0000E+00  0.0000E+00  0.0000E+00  0.0000E+00  0.6725E+02  0.3794E+01  0.0000E+00  0.0000E+00  0.0000E+00  0.0000E+00  0.0000E+00  0.0000E+00  0.0000E+00  0.0000E+00  0.0000E+00  0.0000E+00  0.0000E+00  0.0000E+00  0.0000E+00  0.0000E+00
REACH    1        0     4  0.5790E+01  0.1797E+00  0.1797E+00  0.6788E-04  0.0000E+00  0.2964E+05  0.9726E+02  0.1704E+03  0.7137E+02  0.7125E+02  0.1558E+02  0.1555E+02  0.5783E+02  0.5784E+02  0.3843E-01  0.1129E+00  0.0000E+00  0.0000E+00  0.1956E+00  0.2301E+00  0.1071E+01  0.9265E+00  0.1279E+07  0.1265E+07  0.2932E+04  0.2309E+04  0.0000E+00  0.0000E+00  0.0000E+00  0.0000E+00  0.0000E+00  0.0000E+00  0.0000E+00  0.0000E+00  0.0000E+00  0.0000E+00  0.0000E+00  0.0000E+00  0.0000E+00  0.0000E+00  0.0000E+00  0.0000E+00  0.0000E+00  0.1292E+03  0.1578E+02  0.0000E+00  0.0000E+00  0.0000E+00  0.0000E+00  0.0000E+00  0.0000E+00  0.0000E+00  0.0000E+00  0.0000E+00  0.0000E+00  0.0000E+00  0.0000E+00  0.0000E+00  0.0000E+00
REACH    2        0     4  0.2233E+01  0.7241E-01  0.7240E-01  0.2255E-04  0.0000E+00  0.8755E+04  0.8704E+04  0.2093E+05  0.4788E+02  0.4783E+02  0.1046E+02  0.1045E+02  0.2099E+02  0.2099E+02  0.0000E+00  0.2802E-01  0.0000E+00  0.0000E+00  0.1081E+00  0.1238E+00  0.7909E+00  0.7004E+00  0.3986E+06  0.3954E+06  0.1709E+04  0.1014E+04  0.0000E+00  0.0000E+00  0.0000E+00  0.0000E+00  0.0000E+00  0.0000E+00  0.0000E+00  0.0000E+00  0.0000E+00  0.0000E+00  0.0000E+00  0.0000E+00  0.0000E+00  0.0000E+00  0.0000E+00  0.0000E+00  0.0000E+00  0.6885E+02  0.1057E+02  0.0000E+00  0.0000E+00  0.0000E+00  0.0000E+00  0.0000E+00  0.0000E+00  0.0000E+00  0.0000E+00  0.0000E+00  0.0000E+00  0.0000E+00  0.0000E+00  0.0000E+00  0.0000E+00
REACH    3        0     4  0.1834E+01  0.5509E-01  0.5508E-01  0.1446E-04  0.0000E+00  0.1051E+05  0.1046E+05  0.2695E+05  0.6642E+01  0.6636E+01  0.1445E+01  0.1442E+01  0.1894E+02  0.1894E+02  0.0000E+00  0.1042E-01  0.0000E+00  0.0000E+00  0.2224E-01  0.2455E-01  0.1080E+00  0.9752E-01  0.4492E+06  0.4465E+06  0.1270E+04  0.7093E+03  0.0000E+00  0.0000E+00  0.0000E+00  0.0000E+00  0.0000E+00  0.0000E+00  0.0000E+00  0.0000E+00  0.0000E+00  0.0000E+00  0.0000E+00  0.0000E+00  0.0000E+00  0.0000E+00  0.0000E+00  0.0000E+00  0.0000E+00  0.2559E+02  0.1467E+01  0.0000E+00  0.0000E+00  0.0000E+00  0.0000E+00  0.0000E+00  0.0000E+00  0.0000E+00  0.0000E+00  0.0000E+00  0.0000E+00  0.0000E+00  0.0000E+00  0.0000E+00  0.0000E+00
REACH    1        0     5  0.5790E+01  0.5654E-01  0.5646E-01  0.1038E-03  0.0000E+00  0.1681E+04  0.1913E+02  0.1094E+03  0.2754E+01  0.2752E+01  0.5995E+00  0.5984E+00  0.5107E+01  0.5103E+01  0.1202E-01  0.3613E-01  0.0000E+00  0.2661E-04  0.1186E-01  0.1600E-01  0.9937E-02  0.5974E-02  0.4090E+05  0.4018E+05  0.1505E+04  0.1414E+04  0.0000E+00  0.0000E+00  0.0000E+00  0.0000E+00  0.0000E+00  0.0000E+00  0.0000E+00  0.0000E+00  0.0000E+00  0.0000E+00  0.0000E+00  0.0000E+00  0.0000E+00  0.0000E+00  0.0000E+00  0.0000E+00  0.0000E+00  0.7891E+01  0.6144E+00  0.0000E+00  0.0000E+00  0.0000E+00  0.0000E+00  0.0000E+00  0.0000E+00  0.0000E+00  0.0000E+00  0.0000E+00  0.0000E+00  0.0000E+00  0.0000E+00  0.0000E+00  0.0000E+00
REACH    2        0     5  0.2233E+01  0.2388E-01  0.2385E-01  0.3436E-04  0.0000E+00  0.5027E+03  0.4975E+03  0.3446E+04  0.1818E+01  0.1817E+01  0.3968E+00  0.3963E+00  0.2215E+01  0.2213E+01  0.0000E+00  0.8025E-02  0.0000E+00  0.0000E+00  0.5638E-02  0.7285E-02  0.8100E-02  0.5441E-02  0.1271E+05  0.1252E+05  0.7200E+03  0.6063E+03  0.0000E+00  0.0000E+00  0.0000E+00  0.0000E+00  0.0000E+00  0.0000E+00  0.0000E+00  0.0000E+00  0.0000E+00  0.0000E+00  0.0000E+00  0.0000E+00  0.0000E+00  0.0000E+00  0.0000E+00  0.0000E+00  0.0000E+00  0.4038E+01  0.4036E+00  0.0000E+00  0.0000E+00  0.0000E+00  0.0000E+00  0.0000E+00  0.0000E+00  0.0000E+00  0.0000E+00  0.0000E+00  0.0000E+00  0.0000E+00  0.0000E+00  0.0000E+00  0.0000E+00
REACH    3        0     5  0.1834E+01  0.1680E-01  0.1678E-01  0.2202E-04  0.0000E+00  0.5887E+03  0.5836E+03  0.5239E+04  0.2689E+00  0.2688E+00  0.5845E-01  0.5838E-01  0.1484E+01  0.1483E+01  0.0000E+00  0.3995E-02  0.0000E+00  0.0000E+00  0.1326E-02  0.1878E-02  0.1744E-02  0.1263E-02  0.1420E+05  0.1403E+05  0.5036E+03  0.4211E+03  0.0000E+00  0.0000E+00  0.0000E+00  0.0000E+00  0.0000E+00  0.0000E+00  0.0000E+00  0.0000E+00  0.0000E+00  0.0000E+00  0.0000E+00  0.0000E+00  0.0000E+00  0.0000E+00  0.0000E+00  0.0000E+00  0.0000E+00  0.1756E+01  0.6025E-01  0.0000E+00  0.0000E+00  0.0000E+00  0.0000E+00  0.0000E+00  0.0000E+00  0.0000E+00  0.0000E+00  0.0000E+00  0.0000E+00  0.0000E+00  0.0000E+00  0.0000E+00  0.0000E+00
REACH    1        0     6  0.5790E+01  0.7670E-02  0.7554E-02  0.1180E-03  0.0000E+00  0.2754E-06  0.6021E+00  0.2868E+02  0.3930E-04  0.3121E-04  0.5516E-04  0.5322E-04  0.3271E+00  0.3231E+00  0.8265E-02  0.2799E-01  0.6270E-06  0.1311E-03  0.1686E-04  0.4542E-04  0.1663E-10  0.0000E+00  0.0000E+00  0.0000E+00  0.2333E+03  0.2291E+03  0.0000E+00  0.0000E+00  0.0000E+00  0.0000E+00  0.0000E+00  0.0000E+00  0.0000E+00  0.0000E+00  0.0000E+00  0.0000E+00  0.0000E+00  0.0000E+00  0.0000E+00  0.0000E+00  0.0000E+00  0.0000E+00  0.0000E+00  0.3512E+00  0.9864E-04  0.0000E+00  0.0000E+00  0.0000E+00  0.0000E+00  0.0000E+00  0.0000E+00  0.0000E+00  0.0000E+00  0.0000E+00  0.0000E+00  0.0000E+00  0.0000E+00  0.0000E+00  0.0000E+00
REACH    2        0     6  0.2233E+01  0.3904E-02  0.3866E-02  0.3868E-04  0.0000E+00  0.9597E-07  0.0000E+00  0.0000E+00  0.1644E-04  0.1135E-04  0.2109E-04  0.2061E-04  0.1465E+00  0.1453E+00  0.0000E+00  0.3176E-02  0.0000E+00  0.2807E-06  0.6376E-05  0.0000E+00  0.2048E-10  0.0000E+00  0.0000E+00  0.0000E+00  0.1196E+03  0.1173E+03  0.0000E+00  0.0000E+00  0.0000E+00  0.0000E+00  0.0000E+00  0.0000E+00  0.0000E+00  0.0000E+00  0.0000E+00  0.0000E+00  0.0000E+00  0.0000E+00  0.0000E+00  0.0000E+00  0.0000E+00  0.0000E+00  0.0000E+00  0.1485E+00  0.2061E-04  0.0000E+00  0.0000E+00  0.0000E+00  0.0000E+00  0.0000E+00  0.0000E+00  0.0000E+00  0.0000E+00  0.0000E+00  0.0000E+00  0.0000E+00  0.0000E+00  0.0000E+00  0.0000E+00
REACH    3        0     6  0.1834E+01  0.1750E-02  0.1730E-02  0.2471E-04  0.0000E+00  0.2562E-06  0.1793E-06  0.4812E-04  0.1199E-04  0.1143E-04  0.1766E-04  0.1712E-04  0.8506E-01  0.8418E-01  0.0000E+00  0.5090E-02  0.0000E+00  0.3463E-06  0.5464E-05  0.1180E-04  0.1493E-10  0.0000E+00  0.0000E+00  0.0000E+00  0.5361E+02  0.5246E+02  0.0000E+00  0.0000E+00  0.0000E+00  0.0000E+00  0.0000E+00  0.0000E+00  0.0000E+00  0.0000E+00  0.0000E+00  0.0000E+00  0.0000E+00  0.0000E+00  0.0000E+00  0.0000E+00  0.0000E+00  0.0000E+00  0.0000E+00  0.8928E-01  0.2892E-04  0.0000E+00  0.0000E+00  0.0000E+00  0.0000E+00  0.0000E+00  0.0000E+00  0.0000E+00  0.0000E+00  0.0000E+00  0.0000E+00  0.0000E+00  0.0000E+00  0.0000E+00  0.0000E+00
REACH    1        0     7  0.5790E+01  0.3106E-02  0.2988E-02  0.1196E-03  0.0000E+00  0.3640E-06  0.9887E-01  0.1157E+02  0.1581E-04  0.1332E-04  0.4948E-04  0.4510E-04  0.1515E-01  0.1480E-01  0.9247E-02  0.3626E-01  0.4441E-05  0.1695E-03  0.4384E-04  0.1891E-03  0.1386E-10  0.0000E+00  0.0000E+00  0.0000E+00  0.9818E+02  0.9420E+02  0.0000E+00  0.0000E+00  0.0000E+00  0.0000E+00  0.0000E+00  0.0000E+00  0.0000E+00  0.0000E+00  0.0000E+00  0.0000E+00  0.0000E+00  0.0000E+00  0.0000E+00  0.0000E+00  0.0000E+00  0.0000E+00  0.0000E+00  0.5125E-01  0.2342E-03  0.0000E+00  0.0000E+00  0.0000E+00  0.0000E+00  0.0000E+00  0.0000E+00  0.0000E+00  0.0000E+00  0.0000E+00  0.0000E+00  0.0000E+00  0.0000E+00  0.0000E+00  0.0000E+00
REACH    2        0     7  0.2233E+01  0.1594E-02  0.1555E-02  0.3917E-04  0.0000E+00  0.9917E-07  0.0000E+00  0.0000E+00  0.6525E-05  0.5379E-05  0.1957E-04  0.1841E-04  0.1041E-01  0.1024E-01  0.0000E+00  0.2463E-02  0.0000E+00  0.4441E-05  0.6532E-05  0.2241E-04  0.1451E-10  0.0000E+00  0.0000E+00  0.0000E+00  0.5075E+02  0.4904E+02  0.0000E+00  0.0000E+00  0.0000E+00  0.0000E+00  0.0000E+00  0.0000E+00  0.0000E+00  0.0000E+00  0.0000E+00  0.0000E+00  0.0000E+00  0.0000E+00  0.0000E+00  0.0000E+00  0.0000E+00  0.0000E+00  0.0000E+00  0.1271E-01  0.4082E-04  0.0000E+00  0.0000E+00  0.0000E+00  0.0000E+00  0.0000E+00  0.0000E+00  0.0000E+00  0.0000E+00  0.0000E+00  0.0000E+00  0.0000E+00  0.0000E+00  0.0000E+00  0.0000E+00
REACH    3        0     7  0.1834E+01  0.7497E-03  0.7247E-03  0.2503E-04  0.0000E+00  0.2647E-06  0.2647E-06  0.1400E-03  0.5601E-05  0.5270E-05  0.1680E-04  0.1559E-04  0.1593E-02  0.1538E-02  0.0000E+00  0.6784E-02  0.0000E+00  0.0000E+00  0.5607E-05  0.1627E-04  0.1476E-10  0.0000E+00  0.0000E+00  0.0000E+00  0.2386E+02  0.2284E+02  0.0000E+00  0.0000E+00  0.0000E+00  0.0000E+00  0.0000E+00  0.0000E+00  0.0000E+00  0.0000E+00  0.0000E+00  0.0000E+00  0.0000E+00  0.0000E+00  0.0000E+00  0.0000E+00  0.0000E+00  0.0000E+00  0.0000E+00  0.8327E-02  0.3185E-04  0.0000E+00  0.0000E+00  0.0000E+00  0.0000E+00  0.0000E+00  0.0000E+00  0.0000E+00  0.0000E+00  0.0000E+00  0.0000E+00  0.0000E+00  0.0000E+00  0.0000E+00  0.0000E+00
REACH    1        0     8  0.5790E+01  0.2763E-02  0.2680E-02  0.8228E-04  0.0000E+00  0.3469E-06  0.9917E-01  0.1028E+02  0.1604E-04  0.1427E-04  0.4931E-04  0.4472E-04  0.8487E+00  0.8260E+00  0.8200E-02  0.3715E-01  0.9251E-05  0.1479E-03  0.4911E-04  0.2519E-03  0.1320E-10  0.0000E+00  0.0000E+00  0.0000E+00  0.8653E+02  0.8365E+02  0.0000E+00  0.0000E+00  0.0000E+00  0.0000E+00  0.0000E+00  0.0000E+00  0.0000E+00  0.0000E+00  0.0000E+00  0.0000E+00  0.0000E+00  0.0000E+00  0.0000E+00  0.0000E+00  0.0000E+00  0.0000E+00  0.0000E+00  0.8633E+00  0.2966E-03  0.0000E+00  0.0000E+00  0.0000E+00  0.0000E+00  0.0000E+00  0.0000E+00  0.0000E+00  0.0000E+00  0.0000E+00  0.0000E+00  0.0000E+00  0.0000E+00  0.0000E+00  0.0000E+00
REACH    2        0     8  0.2233E+01  0.1119E-02  0.1091E-02  0.2697E-04  0.0000E+00  0.9917E-07  0.0000E+00  0.0000E+00  0.6525E-05  0.5930E-05  0.1957E-04  0.1817E-04  0.2665E+00  0.2604E+00  0.0000E+00  0.1691E-02  0.0000E+00  0.9251E-05  0.6532E-05  0.2863E-04  0.1480E-10  0.0000E+00  0.0000E+00  0.0000E+00  0.3529E+02  0.3409E+02  0.0000E+00  0.0000E+00  0.0000E+00  0.0000E+00  0.0000E+00  0.0000E+00  0.0000E+00  0.0000E+00  0.0000E+00  0.0000E+00  0.0000E+00  0.0000E+00  0.0000E+00  0.0000E+00  0.0000E+00  0.0000E+00  0.0000E+00  0.2621E+00  0.4680E-04  0.0000E+00  0.0000E+00  0.0000E+00  0.0000E+00  0.0000E+00  0.0000E+00  0.0000E+00  0.0000E+00  0.0000E+00  0.0000E+00  0.0000E+00  0.0000E+00  0.0000E+00  0.0000E+00
REACH    3        0     8  0.1834E+01  0.8592E-03  0.8420E-03  0.1723E-04  0.0000E+00  0.2647E-06  0.2477E-06  0.1474E-03  0.5601E-05  0.4944E-05  0.1680E-04  0.1566E-04  0.3109E+00  0.3071E+00  0.0000E+00  0.6508E-02  0.0000E+00  0.0000E+00  0.5607E-05  0.1531E-04  0.1437E-10  0.0000E+00  0.0000E+00  0.0000E+00  0.2709E+02  0.2628E+02  0.0000E+00  0.0000E+00  0.0000E+00  0.0000E+00  0.0000E+00  0.0000E+00  0.0000E+00  0.0000E+00  0.0000E+00  0.0000E+00  0.0000E+00  0.0000E+00  0.0000E+00  0.0000E+00  0.0000E+00  0.0000E+00  0.0000E+00  0.3136E+00  0.3097E-04  0.0000E+00  0.0000E+00  0.0000E+00  0.0000E+00  0.0000E+00  0.0000E+00  0.0000E+00  0.0000E+00  0.0000E+00  0.0000E+00  0.0000E+00  0.0000E+00  0.0000E+00  0.0000E+00
REACH    1        0     9  0.5790E+01  0.6155E-02  0.6069E-02  0.8329E-04  0.0000E+00  0.1009E+04  0.1040E+01  0.1871E+02  0.1321E+01  0.1299E+01  0.2879E+00  0.2825E+00  0.1845E+01  0.1830E+01  0.7770E-02  0.3238E-01  0.5176E-05  0.1197E-03  0.6223E-02  0.8576E-02  0.3173E-01  0.8405E-02  0.5200E+05  0.5065E+05  0.9988E+02  0.7552E+02  0.0000E+00  0.0000E+00  0.0000E+00  0.0000E+00  0.0000E+00  0.0000E+00  0.0000E+00  0.0000E+00  0.0000E+00  0.0000E+00  0.0000E+00  0.0000E+00  0.0000E+00  0.0000E+00  0.0000E+00  0.0000E+00  0.0000E+00  0.3161E+01  0.2911E+00  0.0000E+00  0.0000E+00  0.0000E+00  0.0000E+00  0.0000E+00  0.0000E+00  0.0000E+00  0.0000E+00  0.0000E+00  0.0000E+00  0.0000E+00  0.0000E+00  0.0000E+00  0.0000E+00
REACH    2        0     9  0.2233E+01  0.2288E-02  0.2260E-02  0.2729E-04  0.0000E+00  0.3323E+03  0.3271E+03  0.5521E+04  0.9279E+00  0.9139E+00  0.2030E+00  0.1995E+00  0.6318E+00  0.6276E+00  0.0000E+00  0.1946E-02  0.0000E+00  0.5176E-05  0.3106E-02  0.4248E-02  0.4013E-01  0.1174E-01  0.1915E+05  0.1872E+05  0.5032E+02  0.2869E+02  0.0000E+00  0.0000E+00  0.0000E+00  0.0000E+00  0.0000E+00  0.0000E+00  0.0000E+00  0.0000E+00  0.0000E+00  0.0000E+00  0.0000E+00  0.0000E+00  0.0000E+00  0.0000E+00  0.0000E+00  0.0000E+00  0.0000E+00  0.1543E+01  0.2038E+00  0.0000E+00  0.0000E+00  0.0000E+00  0.0000E+00  0.0000E+00  0.0000E+00  0.0000E+00  0.0000E+00  0.0000E+00  0.0000E+00  0.0000E+00  0.0000E+00  0.0000E+00  0.0000E+00
REACH    3        0     9  0.1834E+01  0.1983E-02  0.1962E-02  0.1743E-04  0.0000E+00  0.3115E+03  0.3078E+03  0.5966E+04  0.1046E+00  0.1035E+00  0.2281E-01  0.2254E-01  0.6271E+00  0.6222E+00  0.0000E+00  0.5825E-02  0.0000E+00  0.0000E+00  0.5265E-03  0.7022E-03  0.8674E-02  0.3875E-02  0.1515E+05  0.1489E+05  0.4698E+02  0.2691E+02  0.0000E+00  0.0000E+00  0.0000E+00  0.0000E+00  0.0000E+00  0.0000E+00  0.0000E+00  0.0000E+00  0.0000E+00  0.0000E+00  0.0000E+00  0.0000E+00  0.0000E+00  0.0000E+00  0.0000E+00  0.0000E+00  0.0000E+00  0.7316E+00  0.2324E-01  0.0000E+00  0.0000E+00  0.0000E+00  0.0000E+00  0.0000E+00  0.0000E+00  0.0000E+00  0.0000E+00  0.0000E+00  0.0000E+00  0.0000E+00  0.0000E+00  0.0000E+00  0.0000E+00
REACH    1        0    10  0.5790E+01  0.4277E-01  0.4270E-01  0.4846E-04  0.0000E+00  0.1725E+05  0.1572E+02  0.8123E+02  0.2619E+02  0.2609E+02  0.5690E+01  0.5661E+01  0.1078E+02  0.1074E+02  0.2472E-01  0.7405E-01  0.1294E-05  0.1067E-03  0.8770E-01  0.1138E+00  0.5908E+00  0.3292E+00  0.8599E+06  0.8474E+06  0.3788E+03  0.1175E+03  0.0000E+00  0.0000E+00  0.0000E+00  0.0000E+00  0.0000E+00  0.0000E+00  0.0000E+00  0.0000E+00  0.0000E+00  0.0000E+00  0.0000E+00  0.0000E+00  0.0000E+00  0.0000E+00  0.0000E+00  0.0000E+00  0.0000E+00  0.3691E+02  0.5774E+01  0.0000E+00  0.0000E+00  0.0000E+00  0.0000E+00  0.0000E+00  0.0000E+00  0.0000E+00  0.0000E+00  0.0000E+00  0.0000E+00  0.0000E+00  0.0000E+00  0.0000E+00  0.0000E+00
REACH    2        0    10  0.2233E+01  0.1555E-01  0.1553E-01  0.1593E-04  0.0000E+00  0.5382E+04  0.5338E+04  0.2821E+05  0.1786E+02  0.1782E+02  0.3889E+01  0.3874E+01  0.3855E+01  0.3844E+01  0.0000E+00  0.1928E-01  0.0000E+00  0.1089E-05  0.4471E-01  0.5773E-01  0.6797E+00  0.3068E+00  0.2926E+06  0.2896E+06  0.2876E+03  0.4674E+02  0.0000E+00  0.0000E+00  0.0000E+00  0.0000E+00  0.0000E+00  0.0000E+00  0.0000E+00  0.0000E+00  0.0000E+00  0.0000E+00  0.0000E+00  0.0000E+00  0.0000E+00  0.0000E+00  0.0000E+00  0.0000E+00  0.0000E+00  0.2168E+02  0.3932E+01  0.0000E+00  0.0000E+00  0.0000E+00  0.0000E+00  0.0000E+00  0.0000E+00  0.0000E+00  0.0000E+00  0.0000E+00  0.0000E+00  0.0000E+00  0.0000E+00  0.0000E+00  0.0000E+00
REACH    3        0    10  0.1834E+01  0.1390E-01  0.1389E-01  0.1019E-04  0.0000E+00  0.5740E+04  0.5705E+04  0.2848E+05  0.2256E+01  0.2251E+01  0.4904E+00  0.4890E+00  0.3653E+01  0.3646E+01  0.0000E+00  0.5440E-02  0.0000E+00  0.2049E-06  0.8674E-02  0.1046E-01  0.8937E-01  0.4895E-01  0.2764E+06  0.2743E+06  0.2886E+03  0.6383E+02  0.0000E+00  0.0000E+00  0.0000E+00  0.0000E+00  0.0000E+00  0.0000E+00  0.0000E+00  0.0000E+00  0.0000E+00  0.0000E+00  0.0000E+00  0.0000E+00  0.0000E+00  0.0000E+00  0.0000E+00  0.0000E+00  0.0000E+00  0.5902E+01  0.4995E+00  0.0000E+00  0.0000E+00  0.0000E+00  0.0000E+00  0.0000E+00  0.0000E+00  0.0000E+00  0.0000E+00  0.0000E+00  0.0000E+00  0.0000E+00  0.0000E+00  0.0000E+00  0.0000E+00
REACH    1        0    11  0.5790E+01  0.1410E+00  0.1410E+00  0.3628E-04  0.0000E+00  0.6538E+05  0.8436E+02  0.1473E+03  0.1082E+03  0.1080E+03  0.2345E+02  0.2339E+02  0.1226E+03  0.1225E+03  0.5537E-01  0.1571E+00  0.0000E+00  0.7682E-04  0.2849E+00  0.3446E+00  0.2961E+01  0.2317E+01  0.3293E+07  0.3261E+07  0.1127E+04  0.4433E+03  0.0000E+00  0.0000E+00  0.0000E+00  0.0000E+00  0.0000E+00  0.0000E+00  0.0000E+00  0.0000E+00  0.0000E+00  0.0000E+00  0.0000E+00  0.0000E+00  0.0000E+00  0.0000E+00  0.0000E+00  0.0000E+00  0.0000E+00  0.2307E+03  0.2373E+02  0.0000E+00  0.0000E+00  0.0000E+00  0.0000E+00  0.0000E+00  0.0000E+00  0.0000E+00  0.0000E+00  0.0000E+00  0.0000E+00  0.0000E+00  0.0000E+00  0.0000E+00  0.0000E+00
REACH    2        0    11  0.2233E+01  0.5229E-01  0.5228E-01  0.1202E-04  0.0000E+00  0.1942E+05  0.1931E+05  0.4424E+05  0.7301E+02  0.7291E+02  0.1584E+02  0.1580E+02  0.4361E+02  0.4359E+02  0.0000E+00  0.4509E-01  0.0000E+00  0.0000E+00  0.1527E+00  0.1819E+00  0.2367E+01  0.1847E+01  0.1053E+07  0.1045E+07  0.8618E+03  0.1955E+03  0.0000E+00  0.0000E+00  0.0000E+00  0.0000E+00  0.0000E+00  0.0000E+00  0.0000E+00  0.0000E+00  0.0000E+00  0.0000E+00  0.0000E+00  0.0000E+00  0.0000E+00  0.0000E+00  0.0000E+00  0.0000E+00  0.0000E+00  0.1166E+03  0.1598E+02  0.0000E+00  0.0000E+00  0.0000E+00  0.0000E+00  0.0000E+00  0.0000E+00  0.0000E+00  0.0000E+00  0.0000E+00  0.0000E+00  0.0000E+00  0.0000E+00  0.0000E+00  0.0000E+00
REACH    3        0    11  0.1834E+01  0.4526E-01  0.4526E-01  0.7749E-05  0.0000E+00  0.2301E+05  0.2290E+05  0.4847E+05  0.9898E+01  0.9887E+01  0.2145E+01  0.2141E+01  0.3869E+02  0.3868E+02  0.0000E+00  0.1029E-01  0.0000E+00  0.0000E+00  0.3173E-01  0.3560E-01  0.3422E+00  0.2758E+00  0.1141E+07  0.1135E+07  0.7783E+03  0.1725E+03  0.0000E+00  0.0000E+00  0.0000E+00  0.0000E+00  0.0000E+00  0.0000E+00  0.0000E+00  0.0000E+00  0.0000E+00  0.0000E+00  0.0000E+00  0.0000E+00  0.0000E+00  0.0000E+00  0.0000E+00  0.0000E+00  0.0000E+00  0.4858E+02  0.2177E+01  0.0000E+00  0.0000E+00  0.0000E+00  0.0000E+00  0.0000E+00  0.0000E+00  0.0000E+00  0.0000E+00  0.0000E+00  0.0000E+00  0.0000E+00  0.0000E+00  0.0000E+00  0.0000E+00
REACH    1        0    12  0.5790E+01  0.1009E+00  0.1008E+00  0.3429E-04  0.0000E+00  0.4064E+05  0.5928E+02  0.1160E+03  0.6546E+02  0.6533E+02  0.1418E+02  0.1414E+02  0.7550E+02  0.7551E+02  0.3511E-01  0.1044E+00  0.0000E+00  0.7869E-04  0.1880E+00  0.2274E+00  0.1441E+01  0.1144E+01  0.2137E+07  0.2117E+07  0.9818E+03  0.5291E+03  0.0000E+00  0.0000E+00  0.0000E+00  0.0000E+00  0.0000E+00  0.0000E+00  0.0000E+00  0.0000E+00  0.0000E+00  0.0000E+00  0.0000E+00  0.0000E+00  0.0000E+00  0.0000E+00  0.0000E+00  0.0000E+00  0.0000E+00  0.1409E+03  0.1436E+02  0.0000E+00  0.0000E+00  0.0000E+00  0.0000E+00  0.0000E+00  0.0000E+00  0.0000E+00  0.0000E+00  0.0000E+00  0.0000E+00  0.0000E+00  0.0000E+00  0.0000E+00  0.0000E+00
REACH    2        0    12  0.2233E+01  0.3916E-01  0.3914E-01  0.1127E-04  0.0000E+00  0.1199E+05  0.1193E+05  0.2389E+05  0.4414E+02  0.4408E+02  0.9569E+01  0.9549E+01  0.2449E+02  0.2449E+02  0.0000E+00  0.2747E-01  0.0000E+00  0.0000E+00  0.1016E+00  0.1191E+00  0.1141E+01  0.9180E+00  0.6769E+06  0.6721E+06  0.6823E+03  0.2701E+03  0.0000E+00  0.0000E+00  0.0000E+00  0.0000E+00  0.0000E+00  0.0000E+00  0.0000E+00  0.0000E+00  0.0000E+00  0.0000E+00  0.0000E+00  0.0000E+00  0.0000E+00  0.0000E+00  0.0000E+00  0.0000E+00  0.0000E+00  0.6860E+02  0.9668E+01  0.0000E+00  0.0000E+00  0.0000E+00  0.0000E+00  0.0000E+00  0.0000E+00  0.0000E+00  0.0000E+00  0.0000E+00  0.0000E+00  0.0000E+00  0.0000E+00  0.0000E+00  0.0000E+00
REACH    3        0    12  0.1834E+01  0.3093E-01  0.3093E-01  0.7187E-05  0.0000E+00  0.1442E+05  0.1436E+05  0.2887E+05  0.6003E+01  0.5995E+01  0.1300E+01  0.1297E+01  0.2654E+02  0.2654E+02  0.0000E+00  0.7639E-02  0.0000E+00  0.0000E+00  0.2124E-01  0.2394E-01  0.1579E+00  0.1278E+00  0.7538E+06  0.7497E+06  0.5072E+03  0.1748E+03  0.0000E+00  0.0000E+00  0.0000E+00  0.0000E+00  0.0000E+00  0.0000E+00  0.0000E+00  0.0000E+00  0.0000E+00  0.0000E+00  0.0000E+00  0.0000E+00  0.0000E+00  0.0000E+00  0.0000E+00  0.0000E+00  0.0000E+00  0.3254E+02  0.1321E+01  0.0000E+00  0.0000E+00  0.0000E+00  0.0000E+00  0.0000E+00  0.0000E+00  0.0000E+00  0.0000E+00  0.0000E+00  0.0000E+00  0.0000E+00  0.0000E+00  0.0000E+00  0.0000E+00
REACH    1        0  1982  0.5790E+01  0.1429E+00  0.1428E+00  0.6907E-04  0.0000E+00  0.6512E+06  0.1259E+04  0.1209E+03  0.2038E+05  0.2036E+05  0.4518E+04  0.4510E+04  0.1243E+04  0.1243E+04  0.5351E+01  0.1616E+02  0.3121E-04  0.5936E-02  0.7855E+01  0.1462E+02  0.4879E+03  0.4352E+03  0.3265E+08  0.3238E+08  0.1548E+05  0.7927E+04  0.0000E+00  0.0000E+00  0.0000E+00  0.0000E+00  0.0000E+00  0.0000E+00  0.0000E+00  0.0000E+00  0.0000E+00  0.0000E+00  0.0000E+00  0.0000E+00  0.0000E+00  0.0000E+00  0.0000E+00  0.0000E+00  0.0000E+00  0.2162E+05  0.4525E+04  0.0000E+00  0.0000E+00  0.0000E+00  0.0000E+00  0.0000E+00  0.0000E+00  0.0000E+00  0.0000E+00  0.0000E+00  0.0000E+00  0.0000E+00  0.0000E+00  0.0000E+00  0.0000E+00
REACH    2        0  1982  0.2233E+01  0.5513E-01  0.5511E-01  0.2281E-04  0.0000E+00  0.1926E+06  0.1917E+06  0.2492E+05  0.8505E+04  0.8499E+04  0.1886E+04  0.1884E+04  0.4261E+03  0.4260E+03  0.0000E+00  0.3579E+01  0.0000E+00  0.3066E-04  0.2847E+01  0.4690E+01  0.2215E+03  0.2007E+03  0.1034E+08  0.1028E+08  0.1186E+05  0.3594E+04  0.0000E+00  0.0000E+00  0.0000E+00  0.0000E+00  0.0000E+00  0.0000E+00  0.0000E+00  0.0000E+00  0.0000E+00  0.0000E+00  0.0000E+00  0.0000E+00  0.0000E+00  0.0000E+00  0.0000E+00  0.0000E+00  0.0000E+00  0.8928E+04  0.1889E+04  0.0000E+00  0.0000E+00  0.0000E+00  0.0000E+00  0.0000E+00  0.0000E+00  0.0000E+00  0.0000E+00  0.0000E+00  0.0000E+00  0.0000E+00  0.0000E+00  0.0000E+00  0.0000E+00
REACH    3        0  1982  0.1834E+01  0.4495E-01  0.4494E-01  0.1462E-04  0.0000E+00  0.2303E+06  0.2294E+06  0.2980E+05  0.6206E+04  0.6202E+04  0.1377E+04  0.1376E+04  0.4208E+03  0.4207E+03  0.0000E+00  0.1773E+01  0.0000E+00  0.5512E-06  0.9487E+00  0.1824E+01  0.1570E+03  0.1455E+03  0.1139E+08  0.1133E+08  0.9650E+04  0.2608E+04  0.0000E+00  0.0000E+00  0.0000E+00  0.0000E+00  0.0000E+00  0.0000E+00  0.0000E+00  0.0000E+00  0.0000E+00  0.0000E+00  0.0000E+00  0.0000E+00  0.0000E+00  0.0000E+00  0.0000E+00  0.0000E+00  0.0000E+00  0.6624E+04  0.1377E+04  0.0000E+00  0.0000E+00  0.0000E+00  0.0000E+00  0.0000E+00  0.0000E+00  0.0000E+00  0.0000E+00  0.0000E+00  0.0000E+00  0.0000E+00  0.0000E+00  0.0000E+00  0.0000E+00
REACH    1        0     1  0.5790E+01  0.2336E+00  0.2335E+00  0.3436E-04  0.0000E+00  0.9055E+05  0.1785E+03  0.1950E+03  0.1605E+05  0.1603E+05  0.3516E+04  0.3509E+04  0.1272E+03  0.1269E+03  0.4193E+01  0.1263E+02  0.3106E-04  0.5232E-02  0.2824E+01  0.7066E+01  0.4144E+03  0.3753E+03  0.4607E+07  0.4563E+07  0.1553E+04  0.5684E+03  0.0000E+00  0.0000E+00  0.0000E+00  0.0000E+00  0.0000E+00  0.0000E+00  0.0000E+00  0.0000E+00  0.0000E+00  0.0000E+00  0.0000E+00  0.0000E+00  0.0000E+00  0.0000E+00  0.0000E+00  0.0000E+00  0.0000E+00  0.1617E+05  0.3516E+04  0.0000E+00  0.0000E+00  0.0000E+00  0.0000E+00  0.0000E+00  0.0000E+00  0.0000E+00  0.0000E+00  0.0000E+00  0.0000E+00  0.0000E+00  0.0000E+00  0.0000E+00  0.0000E+00
REACH    2        0     1  0.2233E+01  0.8858E-01  0.8855E-01  0.1145E-04  0.0000E+00  0.2673E+05  0.2658E+05  0.4886E+05  0.5685E+04  0.5679E+04  0.1245E+04  0.1243E+04  0.4090E+02  0.4084E+02  0.0000E+00  0.2223E+01  0.0000E+00  0.2147E-04  0.5766E+00  0.1551E+01  0.1583E+03  0.1450E+03  0.1461E+07  0.1450E+07  0.1327E+04  0.2633E+03  0.0000E+00  0.0000E+00  0.0000E+00  0.0000E+00  0.0000E+00  0.0000E+00  0.0000E+00  0.0000E+00  0.0000E+00  0.0000E+00  0.0000E+00  0.0000E+00  0.0000E+00  0.0000E+00  0.0000E+00  0.0000E+00  0.0000E+00  0.5722E+04  0.1245E+04  0.0000E+00  0.0000E+00  0.0000E+00  0.0000E+00  0.0000E+00  0.0000E+00  0.0000E+00  0.0000E+00  0.0000E+00  0.0000E+00  0.0000E+00  0.0000E+00  0.0000E+00  0.0000E+00
REACH    3        0     1  0.1834E+01  0.7386E-01  0.7384E-01  0.7360E-05  0.0000E+00  0.3212E+05  0.3199E+05  0.6085E+05  0.5392E+04  0.5389E+04  0.1182E+04  0.1180E+04  0.4503E+02  0.4499E+02  0.0000E+00  0.1970E+01  0.0000E+00  0.9598E-05  0.3295E+00  0.9121E+00  0.1464E+03  0.1369E+03  0.1616E+07  0.1607E+07  0.1098E+04  0.1948E+03  0.0000E+00  0.0000E+00  0.0000E+00  0.0000E+00  0.0000E+00  0.0000E+00  0.0000E+00  0.0000E+00  0.0000E+00  0.0000E+00  0.0000E+00  0.0000E+00  0.0000E+00  0.0000E+00  0.0000E+00  0.0000E+00  0.0000E+00  0.5435E+04  0.1181E+04  0.0000E+00  0.0000E+00  0.0000E+00  0.0000E+00  0.0000E+00  0.0000E+00  0.0000E+00  0.0000E+00  0.0000E+00  0.0000E+00  0.0000E+00  0.0000E+00  0.0000E+00  0.0000E+00
REACH    1        0     2  0.5790E+01  0.4123E+00  0.4122E+00  0.5772E-04  0.0000E+00  0.2525E+06  0.3682E+03  0.2291E+03  0.1516E+04  0.1515E+04  0.3489E+03  0.3486E+03  0.8849E+02  0.8845E+02  0.3580E+00  0.1055E+01  0.0000E+00  0.3466E-03  0.1333E+01  0.1808E+01  0.4672E+02  0.4349E+02  0.1517E+08  0.1509E+08  0.2410E+04  0.7514E+03  0.0000E+00  0.0000E+00  0.0000E+00  0.0000E+00  0.0000E+00  0.0000E+00  0.0000E+00  0.0000E+00  0.0000E+00  0.0000E+00  0.0000E+00  0.0000E+00  0.0000E+00  0.0000E+00  0.0000E+00  0.0000E+00  0.0000E+00  0.1605E+04  0.3504E+03  0.0000E+00  0.0000E+00  0.0000E+00  0.0000E+00  0.0000E+00  0.0000E+00  0.0000E+00  0.0000E+00  0.0000E+00  0.0000E+00  0.0000E+00  0.0000E+00  0.0000E+00  0.0000E+00
REACH    2        0     2  0.2233E+01  0.1588E+00  0.1588E+00  0.1933E-04  0.0000E+00  0.7443E+05  0.7419E+05  0.3701E+05  0.9619E+03  0.9616E+03  0.2168E+03  0.2167E+03  0.2884E+02  0.2882E+02  0.0000E+00  0.2420E+00  0.0000E+00  0.0000E+00  0.6136E+00  0.8297E+00  0.3143E+02  0.2958E+02  0.4738E+07  0.4719E+07  0.2111E+04  0.4449E+03  0.0000E+00  0.0000E+00  0.0000E+00  0.0000E+00  0.0000E+00  0.0000E+00  0.0000E+00  0.0000E+00  0.0000E+00  0.0000E+00  0.0000E+00  0.0000E+00  0.0000E+00  0.0000E+00  0.0000E+00  0.0000E+00  0.0000E+00  0.9907E+03  0.2175E+03  0.0000E+00  0.0000E+00  0.0000E+00  0.0000E+00  0.0000E+00  0.0000E+00  0.0000E+00  0.0000E+00  0.0000E+00  0.0000E+00  0.0000E+00  0.0000E+00  0.0000E+00  0.0000E+00
REACH    3        0     2  0.1834E+01  0.1304E+00  0.1304E+00  0.1240E-04  0.0000E+00  0.8946E+05  0.8924E+05  0.4389E+05  0.2973E+03  0.2973E+03  0.7101E+02  0.7099E+02  0.3102E+02  0.3101E+02  0.0000E+00  0.1160E+00  0.0000E+00  0.0000E+00  0.1703E+00  0.2260E+00  0.9458E+01  0.9011E+01  0.5310E+07  0.5294E+07  0.1730E+04  0.3233E+03  0.0000E+00  0.0000E+00  0.0000E+00  0.0000E+00  0.0000E+00  0.0000E+00  0.0000E+00  0.0000E+00  0.0000E+00  0.0000E+00  0.0000E+00  0.0000E+00  0.0000E+00  0.0000E+00  0.0000E+00  0.0000E+00  0.0000E+00  0.3285E+03  0.7121E+02  0.0000E+00  0.0000E+00  0.0000E+00  0.0000E+00  0.0000E+00  0.0000E+00  0.0000E+00  0.0000E+00  0.0000E+00  0.0000E+00  0.0000E+00  0.0000E+00  0.0000E+00  0.0000E+00
REACH    1        0     3  0.5790E+01  0.4334E+00  0.4331E+00  0.7494E-04  0.0000E+00  0.2090E+06  0.3910E+03  0.2605E+03  0.3591E+03  0.3586E+03  0.7999E+02  0.7981E+02  0.1173E+03  0.1173E+03  0.1250E+00  0.3658E+00  0.0000E+00  0.3849E-04  0.8467E+00  0.9808E+00  0.9204E+01  0.8307E+01  0.1102E+08  0.1092E+08  0.2433E+04  0.7846E+03  0.0000E+00  0.0000E+00  0.0000E+00  0.0000E+00  0.0000E+00  0.0000E+00  0.0000E+00  0.0000E+00  0.0000E+00  0.0000E+00  0.0000E+00  0.0000E+00  0.0000E+00  0.0000E+00  0.0000E+00  0.0000E+00  0.0000E+00  0.4762E+03  0.8079E+02  0.0000E+00  0.0000E+00  0.0000E+00  0.0000E+00  0.0000E+00  0.0000E+00  0.0000E+00  0.0000E+00  0.0000E+00  0.0000E+00  0.0000E+00  0.0000E+00  0.0000E+00  0.0000E+00
REACH    2        0     3  0.2233E+01  0.1655E+00  0.1654E+00  0.2535E-04  0.0000E+00  0.6165E+05  0.6138E+05  0.6596E+05  0.2393E+03  0.2390E+03  0.5297E+02  0.5288E+02  0.3791E+02  0.3790E+02  0.0000E+00  0.1008E+00  0.0000E+00  0.0000E+00  0.4626E+00  0.5269E+00  0.6556E+01  0.6005E+01  0.3461E+07  0.3437E+07  0.2292E+04  0.3488E+03  0.0000E+00  0.0000E+00  0.0000E+00  0.0000E+00  0.0000E+00  0.0000E+00  0.0000E+00  0.0000E+00  0.0000E+00  0.0000E+00  0.0000E+00  0.0000E+00  0.0000E+00  0.0000E+00  0.0000E+00  0.0000E+00  0.0000E+00  0.2770E+03  0.5341E+02  0.0000E+00  0.0000E+00  0.0000E+00  0.0000E+00  0.0000E+00  0.0000E+00  0.0000E+00  0.0000E+00  0.0000E+00  0.0000E+00  0.0000E+00  0.0000E+00  0.0000E+00  0.0000E+00
REACH    3        0     3  0.1834E+01  0.1382E+00  0.1382E+00  0.1643E-04  0.0000E+00  0.7411E+05  0.7386E+05  0.7514E+05  0.3426E+02  0.3422E+02  0.8027E+01  0.8017E+01  0.4129E+02  0.4129E+02  0.0000E+00  0.2415E-01  0.0000E+00  0.0000E+00  0.1033E+00  0.1118E+00  0.9326E+00  0.8655E+00  0.3861E+07  0.3840E+07  0.1930E+04  0.2635E+03  0.0000E+00  0.0000E+00  0.0000E+00  0.0000E+00  0.0000E+00  0.0000E+00  0.0000E+00  0.0000E+00  0.0000E+00  0.0000E+00  0.0000E+00  0.0000E+00  0.0000E+00  0.0000E+00  0.0000E+00  0.0000E+00  0.0000E+00  0.7553E+02  0.8129E+01  0.0000E+00  0.0000E+00  0.0000E+00  0.0000E+00  0.0000E+00  0.0000E+00  0.0000E+00  0.0000E+00  0.0000E+00  0.0000E+00  0.0000E+00  0.0000E+00  0.0000E+00  0.0000E+00
REACH    1        0     4  0.5790E+01  0.2079E+00  0.2080E+00  0.6919E-04  0.0000E+00  0.5525E+05  0.1250E+03  0.1892E+03  0.1196E+03  0.1196E+03  0.2589E+02  0.2585E+02  0.5502E+02  0.5502E+02  0.5627E-01  0.1652E+00  0.0000E+00  0.0000E+00  0.2849E+00  0.3431E+00  0.2210E+01  0.1873E+01  0.2515E+07  0.2504E+07  0.2536E+04  0.1640E+04  0.0000E+00  0.0000E+00  0.0000E+00  0.0000E+00  0.0000E+00  0.0000E+00  0.0000E+00  0.0000E+00  0.0000E+00  0.0000E+00  0.0000E+00  0.0000E+00  0.0000E+00  0.0000E+00  0.0000E+00  0.0000E+00  0.0000E+00  0.1747E+03  0.2620E+02  0.0000E+00  0.0000E+00  0.0000E+00  0.0000E+00  0.0000E+00  0.0000E+00  0.0000E+00  0.0000E+00  0.0000E+00  0.0000E+00  0.0000E+00  0.0000E+00  0.0000E+00  0.0000E+00
REACH    2        0     4  0.2233E+01  0.8185E-01  0.8188E-01  0.2309E-04  0.0000E+00  0.1630E+05  0.1622E+05  0.3154E+05  0.7853E+02  0.7850E+02  0.1701E+02  0.1700E+02  0.1824E+02  0.1824E+02  0.0000E+00  0.4111E-01  0.0000E+00  0.0000E+00  0.1498E+00  0.1762E+00  0.1610E+01  0.1402E+01  0.7851E+06  0.7827E+06  0.1758E+04  0.7148E+03  0.0000E+00  0.0000E+00  0.0000E+00  0.0000E+00  0.0000E+00  0.0000E+00  0.0000E+00  0.0000E+00  0.0000E+00  0.0000E+00  0.0000E+00  0.0000E+00  0.0000E+00  0.0000E+00  0.0000E+00  0.0000E+00  0.0000E+00  0.9678E+02  0.1717E+02  0.0000E+00  0.0000E+00  0.0000E+00  0.0000E+00  0.0000E+00  0.0000E+00  0.0000E+00  0.0000E+00  0.0000E+00  0.0000E+00  0.0000E+00  0.0000E+00  0.0000E+00  0.0000E+00
REACH    3        0     4  0.1834E+01  0.6467E-01  0.6469E-01  0.1482E-04  0.0000E+00  0.1960E+05  0.1952E+05  0.3733E+05  0.1194E+02  0.1194E+02  0.2582E+01  0.2580E+01  0.1911E+02  0.1911E+02  0.0000E+00  0.1516E-01  0.0000E+00  0.0000E+00  0.3450E-01  0.3841E-01  0.2430E+00  0.2165E+00  0.8802E+06  0.8781E+06  0.1377E+04  0.5157E+03  0.0000E+00  0.0000E+00  0.0000E+00  0.0000E+00  0.0000E+00  0.0000E+00  0.0000E+00  0.0000E+00  0.0000E+00  0.0000E+00  0.0000E+00  0.0000E+00  0.0000E+00  0.0000E+00  0.0000E+00  0.0000E+00  0.0000E+00  0.3106E+02  0.2618E+01  0.0000E+00  0.0000E+00  0.0000E+00  0.0000E+00  0.0000E+00  0.0000E+00  0.0000E+00  0.0000E+00  0.0000E+00  0.0000E+00  0.0000E+00  0.0000E+00  0.0000E+00  0.0000E+00
REACH    1        0     5  0.5790E+01  0.5719E-01  0.5712E-01  0.9021E-04  0.0000E+00  0.1025E+04  0.1847E+02  0.1091E+03  0.9903E+00  0.9874E+00  0.2143E+00  0.2134E+00  0.3280E+01  0.3278E+01  0.1148E-01  0.3560E-01  0.0000E+00  0.1137E-04  0.4507E-02  0.7007E-02  0.2197E-02  0.1252E-02  0.1706E+05  0.1671E+05  0.1550E+04  0.1457E+04  0.0000E+00  0.0000E+00  0.0000E+00  0.0000E+00  0.0000E+00  0.0000E+00  0.0000E+00  0.0000E+00  0.0000E+00  0.0000E+00  0.0000E+00  0.0000E+00  0.0000E+00  0.0000E+00  0.0000E+00  0.0000E+00  0.0000E+00  0.4301E+01  0.2204E+00  0.0000E+00  0.0000E+00  0.0000E+00  0.0000E+00  0.0000E+00  0.0000E+00  0.0000E+00  0.0000E+00  0.0000E+00  0.0000E+00  0.0000E+00  0.0000E+00  0.0000E+00  0.0000E+00
REACH    2        0     5  0.2233E+01  0.2410E-01  0.2407E-01  0.2996E-04  0.0000E+00  0.3050E+03  0.3014E+03  0.2372E+04  0.6379E+00  0.6363E+00  0.1382E+00  0.1377E+00  0.1342E+01  0.1342E+01  0.0000E+00  0.7220E-02  0.0000E+00  0.0000E+00  0.1916E-02  0.2769E-02  0.1704E-02  0.1117E-02  0.5165E+04  0.5079E+04  0.7272E+03  0.6261E+03  0.0000E+00  0.0000E+00  0.0000E+00  0.0000E+00  0.0000E+00  0.0000E+00  0.0000E+00  0.0000E+00  0.0000E+00  0.0000E+00  0.0000E+00  0.0000E+00  0.0000E+00  0.0000E+00  0.0000E+00  0.0000E+00  0.0000E+00  0.1985E+01  0.1404E+00  0.0000E+00  0.0000E+00  0.0000E+00  0.0000E+00  0.0000E+00  0.0000E+00  0.0000E+00  0.0000E+00  0.0000E+00  0.0000E+00  0.0000E+00  0.0000E+00  0.0000E+00  0.0000E+00
REACH    3        0     5  0.1834E+01  0.1693E-01  0.1692E-01  0.1914E-04  0.0000E+00  0.3613E+03  0.3588E+03  0.3722E+04  0.1045E+00  0.1043E+00  0.2261E-01  0.2256E-01  0.1004E+01  0.1004E+01  0.0000E+00  0.4263E-02  0.0000E+00  0.0000E+00  0.4764E-03  0.7914E-03  0.4592E-03  0.3239E-03  0.6029E+04  0.5971E+04  0.5091E+03  0.4360E+03  0.0000E+00  0.0000E+00  0.0000E+00  0.0000E+00  0.0000E+00  0.0000E+00  0.0000E+00  0.0000E+00  0.0000E+00  0.0000E+00  0.0000E+00  0.0000E+00  0.0000E+00  0.0000E+00  0.0000E+00  0.0000E+00  0.0000E+00  0.1112E+01  0.2336E-01  0.0000E+00  0.0000E+00  0.0000E+00  0.0000E+00  0.0000E+00  0.0000E+00  0.0000E+00  0.0000E+00  0.0000E+00  0.0000E+00  0.0000E+00  0.0000E+00  0.0000E+00  0.0000E+00
REACH    1        0     6  0.5790E+01  0.9899E-02  0.9801E-02  0.9892E-04  0.0000E+00  0.6176E+02  0.1065E+01  0.3703E+02  0.4435E-01  0.4391E-01  0.9634E-02  0.9510E-02  0.3026E+00  0.3003E+00  0.8005E-02  0.2635E-01  0.2911E-06  0.1139E-03  0.4476E-03  0.1094E-02  0.4703E-04  0.0000E+00  0.5277E+03  0.5070E+03  0.2777E+03  0.2610E+03  0.0000E+00  0.0000E+00  0.0000E+00  0.0000E+00  0.0000E+00  0.0000E+00  0.0000E+00  0.0000E+00  0.0000E+00  0.0000E+00  0.0000E+00  0.0000E+00  0.0000E+00  0.0000E+00  0.0000E+00  0.0000E+00  0.0000E+00  0.3707E+00  0.1060E-01  0.0000E+00  0.0000E+00  0.0000E+00  0.0000E+00  0.0000E+00  0.0000E+00  0.0000E+00  0.0000E+00  0.0000E+00  0.0000E+00  0.0000E+00  0.0000E+00  0.0000E+00  0.0000E+00
REACH    2        0     6  0.2233E+01  0.4802E-02  0.4769E-02  0.3244E-04  0.0000E+00  0.1994E+02  0.1951E+02  0.8805E+03  0.3028E-01  0.3005E-01  0.6576E-02  0.6511E-02  0.1247E+00  0.1240E+00  0.0000E+00  0.3958E-02  0.0000E+00  0.2911E-06  0.1275E-03  0.2956E-03  0.7393E-04  0.0000E+00  0.2106E+03  0.2040E+03  0.1454E+03  0.1314E+03  0.0000E+00  0.0000E+00  0.0000E+00  0.0000E+00  0.0000E+00  0.0000E+00  0.0000E+00  0.0000E+00  0.0000E+00  0.0000E+00  0.0000E+00  0.0000E+00  0.0000E+00  0.0000E+00  0.0000E+00  0.0000E+00  0.0000E+00  0.1580E+00  0.6807E-02  0.0000E+00  0.0000E+00  0.0000E+00  0.0000E+00  0.0000E+00  0.0000E+00  0.0000E+00  0.0000E+00  0.0000E+00  0.0000E+00  0.0000E+00  0.0000E+00  0.0000E+00  0.0000E+00
REACH    3        0     6  0.1834E+01  0.2491E-02  0.2474E-02  0.2073E-04  0.0000E+00  0.1914E+02  0.1878E+02  0.1172E+04  0.3700E-02  0.3673E-02  0.8164E-03  0.8085E-03  0.8912E-01  0.8872E-01  0.0000E+00  0.4047E-02  0.0000E+00  0.0000E+00  0.2980E-04  0.9098E-04  0.3743E-04  0.0000E+00  0.1414E+03  0.1375E+03  0.7527E+02  0.6606E+02  0.0000E+00  0.0000E+00  0.0000E+00  0.0000E+00  0.0000E+00  0.0000E+00  0.0000E+00  0.0000E+00  0.0000E+00  0.0000E+00  0.0000E+00  0.0000E+00  0.0000E+00  0.0000E+00  0.0000E+00  0.0000E+00  0.0000E+00  0.9644E-01  0.8995E-03  0.0000E+00  0.0000E+00  0.0000E+00  0.0000E+00  0.0000E+00  0.0000E+00  0.0000E+00  0.0000E+00  0.0000E+00  0.0000E+00  0.0000E+00  0.0000E+00  0.0000E+00  0.0000E+00
REACH    1        0     7  0.5790E+01  0.3845E-02  0.3750E-02  0.9700E-04  0.0000E+00  0.3554E-06  0.1544E+00  0.1435E+02  0.1765E-04  0.1632E-04  0.5014E-04  0.4668E-04  0.1944E+00  0.1901E+00  0.9906E-02  0.3721E-01  0.5199E-05  0.1997E-03  0.3914E-04  0.1565E-03  0.1292E-10  0.0000E+00  0.0000E+00  0.0000E+00  0.1186E+03  0.1153E+03  0.0000E+00  0.0000E+00  0.0000E+00  0.0000E+00  0.0000E+00  0.0000E+00  0.0000E+00  0.0000E+00  0.0000E+00  0.0000E+00  0.0000E+00  0.0000E+00  0.0000E+00  0.0000E+00  0.0000E+00  0.0000E+00  0.0000E+00  0.2275E+00  0.2032E-03  0.0000E+00  0.0000E+00  0.0000E+00  0.0000E+00  0.0000E+00  0.0000E+00  0.0000E+00  0.0000E+00  0.0000E+00  0.0000E+00  0.0000E+00  0.0000E+00  0.0000E+00  0.0000E+00
REACH    2        0     7  0.2233E+01  0.1953E-02  0.1922E-02  0.3180E-04  0.0000E+00  0.9917E-07  0.0000E+00  0.0000E+00  0.6922E-05  0.6453E-05  0.1964E-04  0.1874E-04  0.6587E-01  0.6480E-01  0.0000E+00  0.2796E-02  0.0000E+00  0.4948E-05  0.6532E-05  0.1750E-04  0.1397E-10  0.0000E+00  0.0000E+00  0.0000E+00  0.6067E+02  0.5909E+02  0.0000E+00  0.0000E+00  0.0000E+00  0.0000E+00  0.0000E+00  0.0000E+00  0.0000E+00  0.0000E+00  0.0000E+00  0.0000E+00  0.0000E+00  0.0000E+00  0.0000E+00  0.0000E+00  0.0000E+00  0.0000E+00  0.0000E+00  0.6760E-01  0.3624E-04  0.0000E+00  0.0000E+00  0.0000E+00  0.0000E+00  0.0000E+00  0.0000E+00  0.0000E+00  0.0000E+00  0.0000E+00  0.0000E+00  0.0000E+00  0.0000E+00  0.0000E+00  0.0000E+00
REACH    3        0     7  0.1834E+01  0.9175E-03  0.8972E-03  0.2032E-04  0.0000E+00  0.2647E-06  0.2562E-06  0.1182E-03  0.5812E-05  0.5537E-05  0.1684E-04  0.1583E-04  0.6768E-01  0.6664E-01  0.0000E+00  0.7111E-02  0.0000E+00  0.2504E-06  0.5607E-05  0.1648E-04  0.1367E-10  0.0000E+00  0.0000E+00  0.0000E+00  0.2854E+02  0.2762E+02  0.0000E+00  0.0000E+00  0.0000E+00  0.0000E+00  0.0000E+00  0.0000E+00  0.0000E+00  0.0000E+00  0.0000E+00  0.0000E+00  0.0000E+00  0.0000E+00  0.0000E+00  0.0000E+00  0.0000E+00  0.0000E+00  0.0000E+00  0.7376E-01  0.3231E-04  0.0000E+00  0.0000E+00  0.0000E+00  0.0000E+00  0.0000E+00  0.0000E+00  0.0000E+00  0.0000E+00  0.0000E+00  0.0000E+00  0.0000E+00  0.0000E+00  0.0000E+00  0.0000E+00
REACH    1        0     8  0.5790E+01  0.2530E-02  0.2440E-02  0.8887E-04  0.0000E+00  0.3554E-06  0.7474E-01  0.9404E+01  0.1636E-04  0.1451E-04  0.4903E-04  0.4395E-04  0.3961E+00  0.3818E+00  0.9053E-02  0.3957E-01  0.6192E-05  0.1592E-03  0.5032E-04  0.2522E-03  0.1363E-10  0.0000E+00  0.0000E+00  0.0000E+00  0.7768E+02  0.7470E+02  0.0000E+00  0.0000E+00  0.0000E+00  0.0000E+00  0.0000E+00  0.0000E+00  0.0000E+00  0.0000E+00  0.0000E+00  0.0000E+00  0.0000E+00  0.0000E+00  0.0000E+00  0.0000E+00  0.0000E+00  0.0000E+00  0.0000E+00  0.4216E+00  0.2961E-03  0.0000E+00  0.0000E+00  0.0000E+00  0.0000E+00  0.0000E+00  0.0000E+00  0.0000E+00  0.0000E+00  0.0000E+00  0.0000E+00  0.0000E+00  0.0000E+00  0.0000E+00  0.0000E+00
REACH    2        0     8  0.2233E+01  0.1043E-02  0.1014E-02  0.2913E-04  0.0000E+00  0.9917E-07  0.0000E+00  0.0000E+00  0.6525E-05  0.6107E-05  0.1957E-04  0.1799E-04  0.1259E+00  0.1222E+00  0.0000E+00  0.1890E-02  0.0000E+00  0.5926E-05  0.6532E-05  0.2876E-04  0.1558E-10  0.0000E+00  0.0000E+00  0.0000E+00  0.3227E+02  0.3104E+02  0.0000E+00  0.0000E+00  0.0000E+00  0.0000E+00  0.0000E+00  0.0000E+00  0.0000E+00  0.0000E+00  0.0000E+00  0.0000E+00  0.0000E+00  0.0000E+00  0.0000E+00  0.0000E+00  0.0000E+00  0.0000E+00  0.0000E+00  0.1241E+00  0.4675E-04  0.0000E+00  0.0000E+00  0.0000E+00  0.0000E+00  0.0000E+00  0.0000E+00  0.0000E+00  0.0000E+00  0.0000E+00  0.0000E+00  0.0000E+00  0.0000E+00  0.0000E+00  0.0000E+00
REACH    3        0     8  0.1834E+01  0.7786E-03  0.7600E-03  0.1861E-04  0.0000E+00  0.2647E-06  0.2562E-06  0.1549E-03  0.5601E-05  0.5093E-05  0.1680E-04  0.1555E-04  0.1454E+00  0.1428E+00  0.0000E+00  0.7163E-02  0.0000E+00  0.2664E-06  0.5607E-05  0.1640E-04  0.1492E-10  0.0000E+00  0.0000E+00  0.0000E+00  0.2409E+02  0.2326E+02  0.0000E+00  0.0000E+00  0.0000E+00  0.0000E+00  0.0000E+00  0.0000E+00  0.0000E+00  0.0000E+00  0.0000E+00  0.0000E+00  0.0000E+00  0.0000E+00  0.0000E+00  0.0000E+00  0.0000E+00  0.0000E+00  0.0000E+00  0.1500E+00  0.3194E-04  0.0000E+00  0.0000E+00  0.0000E+00  0.0000E+00  0.0000E+00  0.0000E+00  0.0000E+00  0.0000E+00  0.0000E+00  0.0000E+00  0.0000E+00  0.0000E+00  0.0000E+00  0.0000E+00
REACH    1        0     9  0.5790E+01  0.9200E-02  0.9119E-02  0.7782E-04  0.0000E+00  0.1674E+04  0.1463E+01  0.3039E+02  0.1831E+01  0.1808E+01  0.3957E+00  0.3893E+00  0.2193E+01  0.2184E+01  0.9674E-02  0.3570E-01  0.5737E-05  0.1243E-03  0.9515E-02  0.1557E-01  0.3681E-01  0.7287E-02  0.7466E+05  0.7251E+05  0.1377E+03  0.8943E+02  0.0000E+00  0.0000E+00  0.0000E+00  0.0000E+00  0.0000E+00  0.0000E+00  0.0000E+00  0.0000E+00  0.0000E+00  0.0000E+00  0.0000E+00  0.0000E+00  0.0000E+00  0.0000E+00  0.0000E+00  0.0000E+00  0.0000E+00  0.4028E+01  0.4049E+00  0.0000E+00  0.0000E+00  0.0000E+00  0.0000E+00  0.0000E+00  0.0000E+00  0.0000E+00  0.0000E+00  0.0000E+00  0.0000E+00  0.0000E+00  0.0000E+00  0.0000E+00  0.0000E+00
REACH    2        0     9  0.2233E+01  0.3310E-02  0.3284E-02  0.2551E-04  0.0000E+00  0.5412E+03  0.5318E+03  0.1129E+05  0.1251E+01  0.1238E+01  0.2711E+00  0.2673E+00  0.7799E+00  0.7770E+00  0.0000E+00  0.4595E-02  0.0000E+00  0.5737E-05  0.3716E-02  0.6478E-02  0.4982E-01  0.1007E-01  0.2705E+05  0.2638E+05  0.7491E+02  0.3404E+02  0.0000E+00  0.0000E+00  0.0000E+00  0.0000E+00  0.0000E+00  0.0000E+00  0.0000E+00  0.0000E+00  0.0000E+00  0.0000E+00  0.0000E+00  0.0000E+00  0.0000E+00  0.0000E+00  0.0000E+00  0.0000E+00  0.0000E+00  0.2019E+01  0.2738E+00  0.0000E+00  0.0000E+00  0.0000E+00  0.0000E+00  0.0000E+00  0.0000E+00  0.0000E+00  0.0000E+00  0.0000E+00  0.0000E+00  0.0000E+00  0.0000E+00  0.0000E+00  0.0000E+00
REACH    3        0     9  0.1834E+01  0.3018E-02  0.2997E-02  0.1630E-04  0.0000E+00  0.5293E+03  0.5224E+03  0.1100E+05  0.1582E+00  0.1570E+00  0.3426E-01  0.3392E-01  0.7221E+00  0.7193E+00  0.0000E+00  0.5079E-02  0.0000E+00  0.0000E+00  0.7497E-03  0.1339E-02  0.1298E-01  0.4893E-02  0.2236E+05  0.2194E+05  0.7333E+02  0.3473E+02  0.0000E+00  0.0000E+00  0.0000E+00  0.0000E+00  0.0000E+00  0.0000E+00  0.0000E+00  0.0000E+00  0.0000E+00  0.0000E+00  0.0000E+00  0.0000E+00  0.0000E+00  0.0000E+00  0.0000E+00  0.0000E+00  0.0000E+00  0.8814E+00  0.3526E-01  0.0000E+00  0.0000E+00  0.0000E+00  0.0000E+00  0.0000E+00  0.0000E+00  0.0000E+00  0.0000E+00  0.0000E+00  0.0000E+00  0.0000E+00  0.0000E+00  0.0000E+00  0.0000E+00
REACH    1        0    10  0.5790E+01  0.2559E-01  0.2553E-01  0.6452E-04  0.0000E+00  0.7596E+04  0.8367E+01  0.5775E+02  0.1371E+02  0.1363E+02  0.2965E+01  0.2942E+01  0.1593E+01  0.1590E+01  0.1367E-01  0.4376E-01  0.2336E-05  0.8156E-04  0.4375E-01  0.5975E-01  0.3006E+00  0.1516E+00  0.4219E+06  0.4147E+06  0.2892E+03  0.1746E+03  0.0000E+00  0.0000E+00  0.0000E+00  0.0000E+00  0.0000E+00  0.0000E+00  0.0000E+00  0.0000E+00  0.0000E+00  0.0000E+00  0.0000E+00  0.0000E+00  0.0000E+00  0.0000E+00  0.0000E+00  0.0000E+00  0.0000E+00  0.1526E+02  0.3002E+01  0.0000E+00  0.0000E+00  0.0000E+00  0.0000E+00  0.0000E+00  0.0000E+00  0.0000E+00  0.0000E+00  0.0000E+00  0.0000E+00  0.0000E+00  0.0000E+00  0.0000E+00  0.0000E+00
REACH    2        0    10  0.2233E+01  0.9308E-02  0.9287E-02  0.2108E-04  0.0000E+00  0.2357E+04  0.2334E+04  0.2037E+05  0.9191E+01  0.9151E+01  0.1991E+01  0.1980E+01  0.6639E+00  0.6622E+00  0.0000E+00  0.9148E-02  0.0000E+00  0.2336E-05  0.2102E-01  0.2842E-01  0.3608E+00  0.1424E+00  0.1437E+06  0.1419E+06  0.1624E+03  0.6457E+02  0.0000E+00  0.0000E+00  0.0000E+00  0.0000E+00  0.0000E+00  0.0000E+00  0.0000E+00  0.0000E+00  0.0000E+00  0.0000E+00  0.0000E+00  0.0000E+00  0.0000E+00  0.0000E+00  0.0000E+00  0.0000E+00  0.0000E+00  0.9822E+01  0.2008E+01  0.0000E+00  0.0000E+00  0.0000E+00  0.0000E+00  0.0000E+00  0.0000E+00  0.0000E+00  0.0000E+00  0.0000E+00  0.0000E+00  0.0000E+00  0.0000E+00  0.0000E+00  0.0000E+00
REACH    3        0    10  0.1834E+01  0.8296E-02  0.8287E-02  0.1347E-04  0.0000E+00  0.2535E+04  0.2516E+04  0.2294E+05  0.1259E+01  0.1255E+01  0.2722E+00  0.2711E+00  0.4766E+00  0.4763E+00  0.0000E+00  0.4521E-02  0.0000E+00  0.0000E+00  0.4494E-02  0.5612E-02  0.5497E-01  0.2545E-01  0.1359E+06  0.1346E+06  0.1623E+03  0.7194E+02  0.0000E+00  0.0000E+00  0.0000E+00  0.0000E+00  0.0000E+00  0.0000E+00  0.0000E+00  0.0000E+00  0.0000E+00  0.0000E+00  0.0000E+00  0.0000E+00  0.0000E+00  0.0000E+00  0.0000E+00  0.0000E+00  0.0000E+00  0.1736E+01  0.2767E+00  0.0000E+00  0.0000E+00  0.0000E+00  0.0000E+00  0.0000E+00  0.0000E+00  0.0000E+00  0.0000E+00  0.0000E+00  0.0000E+00  0.0000E+00  0.0000E+00  0.0000E+00  0.0000E+00
REACH    1        0    11  0.5790E+01  0.4960E-01  0.4953E-01  0.4773E-04  0.0000E+00  0.1901E+05  0.2919E+02  0.6291E+02  0.3584E+02  0.3571E+02  0.7755E+01  0.7717E+01  0.1473E+02  0.1468E+02  0.2215E-01  0.7235E-01  0.2363E-05  0.1067E-03  0.9510E-01  0.1210E+00  0.1120E+01  0.8483E+00  0.1147E+07  0.1136E+07  0.4260E+03  0.1922E+03  0.0000E+00  0.0000E+00  0.0000E+00  0.0000E+00  0.0000E+00  0.0000E+00  0.0000E+00  0.0000E+00  0.0000E+00  0.0000E+00  0.0000E+00  0.0000E+00  0.0000E+00  0.0000E+00  0.0000E+00  0.0000E+00  0.0000E+00  0.5046E+02  0.7838E+01  0.0000E+00  0.0000E+00  0.0000E+00  0.0000E+00  0.0000E+00  0.0000E+00  0.0000E+00  0.0000E+00  0.0000E+00  0.0000E+00  0.0000E+00  0.0000E+00  0.0000E+00  0.0000E+00
REACH    2        0    11  0.2233E+01  0.1850E-01  0.1848E-01  0.1560E-04  0.0000E+00  0.5762E+04  0.5725E+04  0.1762E+05  0.2416E+02  0.2411E+02  0.5233E+01  0.5218E+01  0.5485E+01  0.5476E+01  0.0000E+00  0.1552E-01  0.0000E+00  0.1847E-05  0.4939E-01  0.6055E-01  0.9553E+00  0.6775E+00  0.3740E+06  0.3711E+06  0.3189E+03  0.7398E+02  0.0000E+00  0.0000E+00  0.0000E+00  0.0000E+00  0.0000E+00  0.0000E+00  0.0000E+00  0.0000E+00  0.0000E+00  0.0000E+00  0.0000E+00  0.0000E+00  0.0000E+00  0.0000E+00  0.0000E+00  0.0000E+00  0.0000E+00  0.2960E+02  0.5278E+01  0.0000E+00  0.0000E+00  0.0000E+00  0.0000E+00  0.0000E+00  0.0000E+00  0.0000E+00  0.0000E+00  0.0000E+00  0.0000E+00  0.0000E+00  0.0000E+00  0.0000E+00  0.0000E+00
REACH    3        0    11  0.1834E+01  0.1593E-01  0.1592E-01  0.9974E-05  0.0000E+00  0.6504E+04  0.6474E+04  0.1858E+05  0.3267E+01  0.3261E+01  0.7063E+00  0.7045E+00  0.4852E+01  0.4847E+01  0.0000E+00  0.6623E-02  0.0000E+00  0.5159E-06  0.1055E-01  0.1217E-01  0.1367E+00  0.1023E+00  0.3845E+06  0.3823E+06  0.2975E+03  0.7431E+02  0.0000E+00  0.0000E+00  0.0000E+00  0.0000E+00  0.0000E+00  0.0000E+00  0.0000E+00  0.0000E+00  0.0000E+00  0.0000E+00  0.0000E+00  0.0000E+00  0.0000E+00  0.0000E+00  0.0000E+00  0.0000E+00  0.0000E+00  0.8115E+01  0.7167E+00  0.0000E+00  0.0000E+00  0.0000E+00  0.0000E+00  0.0000E+00  0.0000E+00  0.0000E+00  0.0000E+00  0.0000E+00  0.0000E+00  0.0000E+00  0.0000E+00  0.0000E+00  0.0000E+00
REACH    1        0    12  0.5790E+01  0.2888E+00  0.2888E+00  0.2925E-04  0.0000E+00  0.1115E+06  0.2172E+03  0.2263E+03  0.2239E+03  0.2236E+03  0.4843E+02  0.4833E+02  0.1741E+03  0.1741E+03  0.8717E-01  0.2480E+00  0.0000E+00  0.2868E-04  0.5125E+00  0.6062E+00  0.6562E+01  0.5549E+01  0.5801E+07  0.5747E+07  0.1700E+04  0.2874E+03  0.0000E+00  0.0000E+00  0.0000E+00  0.0000E+00  0.0000E+00  0.0000E+00  0.0000E+00  0.0000E+00  0.0000E+00  0.0000E+00  0.0000E+00  0.0000E+00  0.0000E+00  0.0000E+00  0.0000E+00  0.0000E+00  0.0000E+00  0.3979E+03  0.4893E+02  0.0000E+00  0.0000E+00  0.0000E+00  0.0000E+00  0.0000E+00  0.0000E+00  0.0000E+00  0.0000E+00  0.0000E+00  0.0000E+00  0.0000E+00  0.0000E+00  0.0000E+00  0.0000E+00
REACH    2        0    12  0.2233E+01  0.1074E+00  0.1074E+00  0.9818E-05  0.0000E+00  0.3296E+05  0.3277E+05  0.6744E+05  0.1477E+03  0.1475E+03  0.3198E+02  0.3192E+02  0.5819E+02  0.5817E+02  0.0000E+00  0.6882E-01  0.0000E+00  0.0000E+00  0.2712E+00  0.3186E+00  0.4802E+01  0.4108E+01  0.1849E+07  0.1836E+07  0.1654E+04  0.1288E+03  0.0000E+00  0.0000E+00  0.0000E+00  0.0000E+00  0.0000E+00  0.0000E+00  0.0000E+00  0.0000E+00  0.0000E+00  0.0000E+00  0.0000E+00  0.0000E+00  0.0000E+00  0.0000E+00  0.0000E+00  0.0000E+00  0.0000E+00  0.2058E+03  0.3224E+02  0.0000E+00  0.0000E+00  0.0000E+00  0.0000E+00  0.0000E+00  0.0000E+00  0.0000E+00  0.0000E+00  0.0000E+00  0.0000E+00  0.0000E+00  0.0000E+00  0.0000E+00  0.0000E+00
REACH    3        0    12  0.1834E+01  0.9302E-01  0.9301E-01  0.6341E-05  0.0000E+00  0.3952E+05  0.3935E+05  0.7889E+05  0.2202E+02  0.2200E+02  0.4758E+01  0.4751E+01  0.5876E+02  0.5875E+02  0.0000E+00  0.1835E-01  0.0000E+00  0.0000E+00  0.6162E-01  0.6776E-01  0.7494E+00  0.6607E+00  0.2029E+07  0.2018E+07  0.1524E+04  0.1141E+03  0.0000E+00  0.0000E+00  0.0000E+00  0.0000E+00  0.0000E+00  0.0000E+00  0.0000E+00  0.0000E+00  0.0000E+00  0.0000E+00  0.0000E+00  0.0000E+00  0.0000E+00  0.0000E+00  0.0000E+00  0.0000E+00  0.0000E+00  0.8077E+02  0.4819E+01  0.0000E+00  0.0000E+00  0.0000E+00  0.0000E+00  0.0000E+00  0.0000E+00  0.0000E+00  0.0000E+00  0.0000E+00  0.0000E+00  0.0000E+00  0.0000E+00  0.0000E+00  0.0000E+00
REACH    1        0  1983  0.5790E+01  0.1420E+00  0.1419E+00  0.6910E-04  0.0000E+00  0.7482E+06  0.1339E+04  0.1173E+03  0.1832E+05  0.1830E+05  0.4031E+04  0.4023E+04  0.5848E+03  0.5843E+03  0.4903E+01  0.1476E+02  0.5318E-04  0.6443E-02  0.5954E+01  0.1101E+02  0.4806E+03  0.4355E+03  0.4078E+08  0.4046E+08  0.1351E+05  0.6396E+04  0.0000E+00  0.0000E+00  0.0000E+00  0.0000E+00  0.0000E+00  0.0000E+00  0.0000E+00  0.0000E+00  0.0000E+00  0.0000E+00  0.0000E+00  0.0000E+00  0.0000E+00  0.0000E+00  0.0000E+00  0.0000E+00  0.0000E+00  0.1890E+05  0.4034E+04  0.0000E+00  0.0000E+00  0.0000E+00  0.0000E+00  0.0000E+00  0.0000E+00  0.0000E+00  0.0000E+00  0.0000E+00  0.0000E+00  0.0000E+00  0.0000E+00  0.0000E+00  0.0000E+00
REACH    2        0  1983  0.2233E+01  0.5445E-01  0.5443E-01  0.2284E-04  0.0000E+00  0.2210E+06  0.2200E+06  0.2519E+05  0.7147E+04  0.7141E+04  0.1571E+04  0.1569E+04  0.1927E+03  0.1925E+03  0.0000E+00  0.2721E+01  0.0000E+00  0.4255E-04  0.2150E+01  0.3501E+01  0.2041E+03  0.1870E+03  0.1285E+08  0.1277E+08  0.1067E+05  0.2921E+04  0.0000E+00  0.0000E+00  0.0000E+00  0.0000E+00  0.0000E+00  0.0000E+00  0.0000E+00  0.0000E+00  0.0000E+00  0.0000E+00  0.0000E+00  0.0000E+00  0.0000E+00  0.0000E+00  0.0000E+00  0.0000E+00  0.0000E+00  0.7337E+04  0.1573E+04  0.0000E+00  0.0000E+00  0.0000E+00  0.0000E+00  0.0000E+00  0.0000E+00  0.0000E+00  0.0000E+00  0.0000E+00  0.0000E+00  0.0000E+00  0.0000E+00  0.0000E+00  0.0000E+00
[...]
REACH    1        0     5  0.5790E+01  0.1268E-01  0.1258E-01  0.1017E-03  0.0000E+00  0.3013E+04  0.2194E+01  0.4078E+02  0.4965E+02  0.4935E+02  0.1121E+02  0.1112E+02  0.1696E+01  0.1688E+01  0.4463E-01  0.1422E+00  0.4520E-05  0.2843E-03  0.1690E-01  0.4593E-01  0.6662E+00  0.2064E+00  0.1419E+06  0.1376E+06  0.1982E+03  0.1353E+03  0.0000E+00  0.0000E+00  0.0000E+00  0.0000E+00  0.0000E+00  0.0000E+00  0.0000E+00  0.0000E+00  0.0000E+00  0.0000E+00  0.0000E+00  0.0000E+00  0.0000E+00  0.0000E+00  0.0000E+00  0.0000E+00  0.0000E+00  0.5118E+02  0.1116E+02  0.0000E+00  0.0000E+00  0.0000E+00  0.0000E+00  0.0000E+00  0.0000E+00  0.0000E+00  0.0000E+00  0.0000E+00  0.0000E+00  0.0000E+00  0.0000E+00  0.0000E+00  0.0000E+00
REACH    2        0     5  0.2233E+01  0.5594E-02  0.5561E-02  0.3334E-04  0.0000E+00  0.9093E+03  0.8961E+03  0.1600E+05  0.2533E+02  0.2523E+02  0.5684E+01  0.5652E+01  0.6101E+00  0.6077E+00  0.0000E+00  0.1897E-01  0.0000E+00  0.2417E-05  0.4238E-02  0.1175E-01  0.6613E+00  0.2215E+00  0.4614E+05  0.4518E+05  0.1401E+03  0.7530E+02  0.0000E+00  0.0000E+00  0.0000E+00  0.0000E+00  0.0000E+00  0.0000E+00  0.0000E+00  0.0000E+00  0.0000E+00  0.0000E+00  0.0000E+00  0.0000E+00  0.0000E+00  0.0000E+00  0.0000E+00  0.0000E+00  0.0000E+00  0.2585E+02  0.5664E+01  0.0000E+00  0.0000E+00  0.0000E+00  0.0000E+00  0.0000E+00  0.0000E+00  0.0000E+00  0.0000E+00  0.0000E+00  0.0000E+00  0.0000E+00  0.0000E+00  0.0000E+00  0.0000E+00
REACH    3        0     5  0.1834E+01  0.3486E-02  0.3465E-02  0.2131E-04  0.0000E+00  0.1043E+04  0.1031E+04  0.1869E+05  0.1362E+02  0.1357E+02  0.3093E+01  0.3080E+01  0.5592E+00  0.5572E+00  0.0000E+00  0.2566E-01  0.0000E+00  0.2103E-05  0.1133E-02  0.3309E-02  0.3574E+00  0.1608E+00  0.4831E+05  0.4751E+05  0.8106E+02  0.3565E+02  0.0000E+00  0.0000E+00  0.0000E+00  0.0000E+00  0.0000E+00  0.0000E+00  0.0000E+00  0.0000E+00  0.0000E+00  0.0000E+00  0.0000E+00  0.0000E+00  0.0000E+00  0.0000E+00  0.0000E+00  0.0000E+00  0.0000E+00  0.1416E+02  0.3083E+01  0.0000E+00  0.0000E+00  0.0000E+00  0.0000E+00  0.0000E+00  0.0000E+00  0.0000E+00  0.0000E+00  0.0000E+00  0.0000E+00  0.0000E+00  0.0000E+00  0.0000E+00  0.0000E+00
REACH    1        0     6  0.5790E+01  0.7034E-02  0.6951E-02  0.8363E-04  0.0000E+00  0.1134E+04  0.9783E+00  0.2327E+02  0.2008E+02  0.1996E+02  0.4535E+01  0.4499E+01  0.1008E+01  0.1002E+01  0.2083E-01  0.6979E-01  0.4364E-05  0.1802E-03  0.7353E-02  0.1924E-01  0.1971E+00  0.1253E-01  0.5110E+05  0.4942E+05  0.1437E+03  0.1130E+03  0.0000E+00  0.0000E+00  0.0000E+00  0.0000E+00  0.0000E+00  0.0000E+00  0.0000E+00  0.0000E+00  0.0000E+00  0.0000E+00  0.0000E+00  0.0000E+00  0.0000E+00  0.0000E+00  0.0000E+00  0.0000E+00  0.0000E+00  0.2103E+02  0.4518E+01  0.0000E+00  0.0000E+00  0.0000E+00  0.0000E+00  0.0000E+00  0.0000E+00  0.0000E+00  0.0000E+00  0.0000E+00  0.0000E+00  0.0000E+00  0.0000E+00  0.0000E+00  0.0000E+00
REACH    2        0     6  0.2233E+01  0.2901E-02  0.2874E-02  0.2744E-04  0.0000E+00  0.3491E+03  0.3418E+03  0.6667E+04  0.1048E+02  0.1043E+02  0.2354E+01  0.2337E+01  0.3528E+00  0.3511E+00  0.0000E+00  0.5867E-02  0.0000E+00  0.4364E-05  0.1824E-02  0.5270E-02  0.2647E+00  0.4500E-01  0.1751E+05  0.1700E+05  0.7599E+02  0.5419E+02  0.0000E+00  0.0000E+00  0.0000E+00  0.0000E+00  0.0000E+00  0.0000E+00  0.0000E+00  0.0000E+00  0.0000E+00  0.0000E+00  0.0000E+00  0.0000E+00  0.0000E+00  0.0000E+00  0.0000E+00  0.0000E+00  0.0000E+00  0.1079E+02  0.2343E+01  0.0000E+00  0.0000E+00  0.0000E+00  0.0000E+00  0.0000E+00  0.0000E+00  0.0000E+00  0.0000E+00  0.0000E+00  0.0000E+00  0.0000E+00  0.0000E+00  0.0000E+00  0.0000E+00
REACH    3        0     6  0.1834E+01  0.2062E-02  0.2041E-02  0.1754E-04  0.0000E+00  0.3819E+03  0.3758E+03  0.6667E+04  0.5268E+01  0.5248E+01  0.1198E+01  0.1192E+01  0.3368E+00  0.3351E+00  0.0000E+00  0.1497E-01  0.0000E+00  0.0000E+00  0.4532E-03  0.1301E-02  0.1238E+00  0.4615E-01  0.1653E+05  0.1617E+05  0.5356E+02  0.3434E+02  0.0000E+00  0.0000E+00  0.0000E+00  0.0000E+00  0.0000E+00  0.0000E+00  0.0000E+00  0.0000E+00  0.0000E+00  0.0000E+00  0.0000E+00  0.0000E+00  0.0000E+00  0.0000E+00  0.0000E+00  0.0000E+00  0.0000E+00  0.5598E+01  0.1193E+01  0.0000E+00  0.0000E+00  0.0000E+00  0.0000E+00  0.0000E+00  0.0000E+00  0.0000E+00  0.0000E+00  0.0000E+00  0.0000E+00  0.0000E+00  0.0000E+00  0.0000E+00  0.0000E+00
REACH    1        0     7  0.5790E+01  0.1168E-02  0.1055E-02  0.1196E-03  0.0000E+00  0.3267E-04  0.1695E-01  0.4261E+01  0.2374E-01  0.2336E-01  0.5125E-02  0.4936E-02  0.3298E-01  0.3203E-01  0.7227E-02  0.3273E-01  0.1507E-04  0.3322E-03  0.3600E-03  0.2475E-02  0.5826E-04  0.0000E+00  0.2101E-04  0.2422E-03  0.3692E+02  0.3326E+02  0.0000E+00  0.0000E+00  0.0000E+00  0.0000E+00  0.0000E+00  0.0000E+00  0.0000E+00  0.0000E+00  0.0000E+00  0.0000E+00  0.0000E+00  0.0000E+00  0.0000E+00  0.0000E+00  0.0000E+00  0.0000E+00  0.0000E+00  0.8845E-01  0.7411E-02  0.0000E+00  0.0000E+00  0.0000E+00  0.0000E+00  0.0000E+00  0.0000E+00  0.0000E+00  0.0000E+00  0.0000E+00  0.0000E+00  0.0000E+00  0.0000E+00  0.0000E+00  0.0000E+00
REACH    2        0     7  0.2233E+01  0.5302E-03  0.4926E-03  0.3920E-04  0.0000E+00  0.1302E-04  0.1015E-04  0.2786E-02  0.1248E-01  0.1255E-01  0.2719E-02  0.2692E-02  0.1007E-01  0.9935E-02  0.0000E+00  0.9507E-03  0.0000E+00  0.1507E-04  0.4547E-04  0.2542E-03  0.6027E-04  0.0000E+00  0.0000E+00  0.1854E-04  0.1686E+02  0.1552E+02  0.0000E+00  0.0000E+00  0.0000E+00  0.0000E+00  0.0000E+00  0.0000E+00  0.0000E+00  0.0000E+00  0.0000E+00  0.0000E+00  0.0000E+00  0.0000E+00  0.0000E+00  0.0000E+00  0.0000E+00  0.0000E+00  0.0000E+00  0.2346E-01  0.2946E-02  0.0000E+00  0.0000E+00  0.0000E+00  0.0000E+00  0.0000E+00  0.0000E+00  0.0000E+00  0.0000E+00  0.0000E+00  0.0000E+00  0.0000E+00  0.0000E+00  0.0000E+00  0.0000E+00
REACH    3        0     7  0.1834E+01  0.3451E-03  0.3238E-03  0.2505E-04  0.0000E+00  0.7624E-05  0.7624E-05  0.2977E-02  0.3613E-02  0.3529E-02  0.7953E-03  0.7638E-03  0.1186E-01  0.1161E-01  0.0000E+00  0.6276E-02  0.0000E+00  0.0000E+00  0.2246E-04  0.6999E-04  0.2873E-04  0.0000E+00  0.0000E+00  0.2471E-05  0.1099E+02  0.1021E+02  0.0000E+00  0.0000E+00  0.0000E+00  0.0000E+00  0.0000E+00  0.0000E+00  0.0000E+00  0.0000E+00  0.0000E+00  0.0000E+00  0.0000E+00  0.0000E+00  0.0000E+00  0.0000E+00  0.0000E+00  0.0000E+00  0.0000E+00  0.2141E-01  0.8338E-03  0.0000E+00  0.0000E+00  0.0000E+00  0.0000E+00  0.0000E+00  0.0000E+00  0.0000E+00  0.0000E+00  0.0000E+00  0.0000E+00  0.0000E+00  0.0000E+00  0.0000E+00  0.0000E+00
REACH    1        0     8  0.5790E+01  0.2082E-02  0.1988E-02  0.8871E-04  0.0000E+00  0.7474E+02  0.1160E+00  0.7679E+01  0.1256E+01  0.1234E+01  0.2833E+00  0.2770E+00  0.9466E+00  0.9244E+00  0.1052E-01  0.3787E-01  0.5893E-04  0.9793E-03  0.7590E-03  0.4276E-02  0.2625E-02  0.0000E+00  0.1049E+04  0.9745E+03  0.4930E+02  0.3832E+02  0.0000E+00  0.0000E+00  0.0000E+00  0.0000E+00  0.0000E+00  0.0000E+00  0.0000E+00  0.0000E+00  0.0000E+00  0.0000E+00  0.0000E+00  0.0000E+00  0.0000E+00  0.0000E+00  0.0000E+00  0.0000E+00  0.0000E+00  0.2197E+01  0.2813E+00  0.0000E+00  0.0000E+00  0.0000E+00  0.0000E+00  0.0000E+00  0.0000E+00  0.0000E+00  0.0000E+00  0.0000E+00  0.0000E+00  0.0000E+00  0.0000E+00  0.0000E+00  0.0000E+00
REACH    2        0     8  0.2233E+01  0.7865E-03  0.7564E-03  0.2906E-04  0.0000E+00  0.2782E+02  0.2675E+02  0.2144E+04  0.7308E+00  0.7194E+00  0.1643E+00  0.1611E+00  0.3219E+00  0.3152E+00  0.0000E+00  0.3456E-02  0.0000E+00  0.5842E-04  0.1581E-03  0.5839E-03  0.7549E-02  0.0000E+00  0.4879E+03  0.4572E+03  0.2344E+02  0.1558E+02  0.0000E+00  0.0000E+00  0.0000E+00  0.0000E+00  0.0000E+00  0.0000E+00  0.0000E+00  0.0000E+00  0.0000E+00  0.0000E+00  0.0000E+00  0.0000E+00  0.0000E+00  0.0000E+00  0.0000E+00  0.0000E+00  0.0000E+00  0.1038E+01  0.1617E+00  0.0000E+00  0.0000E+00  0.0000E+00  0.0000E+00  0.0000E+00  0.0000E+00  0.0000E+00  0.0000E+00  0.0000E+00  0.0000E+00  0.0000E+00  0.0000E+00  0.0000E+00  0.0000E+00
REACH    3        0     8  0.1834E+01  0.6816E-03  0.6630E-03  0.1857E-04  0.0000E+00  0.1858E+02  0.1806E+02  0.1596E+04  0.2507E+00  0.2481E+00  0.5700E-01  0.5625E-01  0.3251E+00  0.3216E+00  0.0000E+00  0.7066E-02  0.0000E+00  0.5024E-06  0.3440E-04  0.1061E-03  0.1858E-02  0.0000E+00  0.2091E+03  0.1999E+03  0.2067E+02  0.1389E+02  0.0000E+00  0.0000E+00  0.0000E+00  0.0000E+00  0.0000E+00  0.0000E+00  0.0000E+00  0.0000E+00  0.0000E+00  0.0000E+00  0.0000E+00  0.0000E+00  0.0000E+00  0.0000E+00  0.0000E+00  0.0000E+00  0.0000E+00  0.5767E+00  0.5636E-01  0.0000E+00  0.0000E+00  0.0000E+00  0.0000E+00  0.0000E+00  0.0000E+00  0.0000E+00  0.0000E+00  0.0000E+00  0.0000E+00  0.0000E+00  0.0000E+00  0.0000E+00  0.0000E+00
REACH    1        0     9  0.5790E+01  0.3651E-02  0.3573E-02  0.7749E-04  0.0000E+00  0.5316E+01  0.2091E+00  0.1361E+02  0.1078E+00  0.1056E+00  0.2430E-01  0.2367E-01  0.8132E+00  0.8003E+00  0.7919E-02  0.3367E-01  0.9310E-05  0.1956E-03  0.1548E-03  0.6138E-03  0.4005E-04  0.0000E+00  0.1666E+02  0.1523E+02  0.1036E+03  0.9742E+02  0.0000E+00  0.0000E+00  0.0000E+00  0.0000E+00  0.0000E+00  0.0000E+00  0.0000E+00  0.0000E+00  0.0000E+00  0.0000E+00  0.0000E+00  0.0000E+00  0.0000E+00  0.0000E+00  0.0000E+00  0.0000E+00  0.0000E+00  0.9398E+00  0.2428E-01  0.0000E+00  0.0000E+00  0.0000E+00  0.0000E+00  0.0000E+00  0.0000E+00  0.0000E+00  0.0000E+00  0.0000E+00  0.0000E+00  0.0000E+00  0.0000E+00  0.0000E+00  0.0000E+00
REACH    2        0     9  0.2233E+01  0.1262E-02  0.1237E-02  0.2538E-04  0.0000E+00  0.2492E+01  0.2365E+01  0.2665E+03  0.7089E-01  0.6956E-01  0.1595E-01  0.1557E-01  0.2529E+00  0.2492E+00  0.0000E+00  0.2013E-02  0.0000E+00  0.9053E-05  0.3158E-04  0.1138E-03  0.1588E-03  0.0000E+00  0.9720E+01  0.8945E+01  0.3801E+02  0.3332E+02  0.0000E+00  0.0000E+00  0.0000E+00  0.0000E+00  0.0000E+00  0.0000E+00  0.0000E+00  0.0000E+00  0.0000E+00  0.0000E+00  0.0000E+00  0.0000E+00  0.0000E+00  0.0000E+00  0.0000E+00  0.0000E+00  0.0000E+00  0.3208E+00  0.1569E-01  0.0000E+00  0.0000E+00  0.0000E+00  0.0000E+00  0.0000E+00  0.0000E+00  0.0000E+00  0.0000E+00  0.0000E+00  0.0000E+00  0.0000E+00  0.0000E+00  0.0000E+00  0.0000E+00
REACH    3        0     9  0.1834E+01  0.1245E-02  0.1229E-02  0.1622E-04  0.0000E+00  0.8862E+00  0.8559E+00  0.9773E+02  0.1498E-01  0.1481E-01  0.3410E-02  0.3360E-02  0.2973E+00  0.2938E+00  0.0000E+00  0.5906E-02  0.0000E+00  0.2567E-06  0.9001E-05  0.2575E-04  0.2999E-04  0.0000E+00  0.3041E+01  0.2883E+01  0.3761E+02  0.3454E+02  0.0000E+00  0.0000E+00  0.0000E+00  0.0000E+00  0.0000E+00  0.0000E+00  0.0000E+00  0.0000E+00  0.0000E+00  0.0000E+00  0.0000E+00  0.0000E+00  0.0000E+00  0.0000E+00  0.0000E+00  0.0000E+00  0.0000E+00  0.3145E+00  0.3386E-02  0.0000E+00  0.0000E+00  0.0000E+00  0.0000E+00  0.0000E+00  0.0000E+00  0.0000E+00  0.0000E+00  0.0000E+00  0.0000E+00  0.0000E+00  0.0000E+00  0.0000E+00  0.0000E+00
REACH    1        0    10  0.5790E+01  0.2601E-01  0.2594E-01  0.5831E-04  0.0000E+00  0.5611E+04  0.6941E+01  0.5748E+02  0.1231E+03  0.1226E+03  0.2779E+02  0.2763E+02  0.5133E+01  0.5110E+01  0.1155E+00  0.3247E+00  0.6962E-05  0.4477E-03  0.5176E-01  0.1390E+00  0.1743E+01  0.9290E+00  0.2297E+06  0.2240E+06  0.3192E+03  0.1565E+03  0.0000E+00  0.0000E+00  0.0000E+00  0.0000E+00  0.0000E+00  0.0000E+00  0.0000E+00  0.0000E+00  0.0000E+00  0.0000E+00  0.0000E+00  0.0000E+00  0.0000E+00  0.0000E+00  0.0000E+00  0.0000E+00  0.0000E+00  0.1280E+03  0.2777E+02  0.0000E+00  0.0000E+00  0.0000E+00  0.0000E+00  0.0000E+00  0.0000E+00  0.0000E+00  0.0000E+00  0.0000E+00  0.0000E+00  0.0000E+00  0.0000E+00  0.0000E+00  0.0000E+00
REACH    2        0    10  0.2233E+01  0.9389E-02  0.9369E-02  0.1911E-04  0.0000E+00  0.1791E+04  0.1765E+04  0.2766E+05  0.6628E+02  0.6609E+02  0.1488E+02  0.1481E+02  0.2161E+01  0.2153E+01  0.0000E+00  0.8766E-01  0.0000E+00  0.6962E-05  0.1340E-01  0.3734E-01  0.1601E+01  0.7485E+00  0.8191E+05  0.8033E+05  0.2009E+03  0.6122E+02  0.0000E+00  0.0000E+00  0.0000E+00  0.0000E+00  0.0000E+00  0.0000E+00  0.0000E+00  0.0000E+00  0.0000E+00  0.0000E+00  0.0000E+00  0.0000E+00  0.0000E+00  0.0000E+00  0.0000E+00  0.0000E+00  0.0000E+00  0.6833E+02  0.1485E+02  0.0000E+00  0.0000E+00  0.0000E+00  0.0000E+00  0.0000E+00  0.0000E+00  0.0000E+00  0.0000E+00  0.0000E+00  0.0000E+00  0.0000E+00  0.0000E+00  0.0000E+00  0.0000E+00
REACH    3        0    10  0.1834E+01  0.8486E-02  0.8470E-02  0.1224E-04  0.0000E+00  0.1806E+04  0.1787E+04  0.3078E+05  0.3057E+02  0.3051E+02  0.6953E+01  0.6932E+01  0.1615E+01  0.1610E+01  0.0000E+00  0.2789E-01  0.0000E+00  0.0000E+00  0.3133E-02  0.8723E-02  0.6437E+00  0.3977E+00  0.7000E+05  0.6902E+05  0.2001E+03  0.7182E+02  0.0000E+00  0.0000E+00  0.0000E+00  0.0000E+00  0.0000E+00  0.0000E+00  0.0000E+00  0.0000E+00  0.0000E+00  0.0000E+00  0.0000E+00  0.0000E+00  0.0000E+00  0.0000E+00  0.0000E+00  0.0000E+00  0.0000E+00  0.3215E+02  0.6940E+01  0.0000E+00  0.0000E+00  0.0000E+00  0.0000E+00  0.0000E+00  0.0000E+00  0.0000E+00  0.0000E+00  0.0000E+00  0.0000E+00  0.0000E+00  0.0000E+00  0.0000E+00  0.0000E+00
REACH    1        0    11  0.5790E+01  0.1497E-01  0.1493E-01  0.3763E-04  0.0000E+00  0.6092E-03  0.1463E+00  0.5603E+02  0.1277E+00  0.1288E+00  0.2757E-01  0.2773E-01  0.5748E+00  0.5779E+00  0.8976E-03  0.2825E-02  0.0000E+00  0.8279E-05  0.5749E-03  0.1048E-02  0.1246E-02  0.0000E+00  0.1097E-02  0.7098E-02  0.2962E+02  0.2944E+02  0.0000E+00  0.0000E+00  0.0000E+00  0.0000E+00  0.0000E+00  0.0000E+00  0.0000E+00  0.0000E+00  0.0000E+00  0.0000E+00  0.0000E+00  0.0000E+00  0.0000E+00  0.0000E+00  0.0000E+00  0.0000E+00  0.0000E+00  0.7095E+00  0.2877E-01  0.0000E+00  0.0000E+00  0.0000E+00  0.0000E+00  0.0000E+00  0.0000E+00  0.0000E+00  0.0000E+00  0.0000E+00  0.0000E+00  0.0000E+00  0.0000E+00  0.0000E+00  0.0000E+00
REACH    2        0    11  0.2233E+01  0.5090E-02  0.5079E-02  0.1235E-04  0.0000E+00  0.2363E-03  0.2283E-03  0.2488E+00  0.7111E-01  0.7182E-01  0.1541E-01  0.1551E-01  0.2075E+00  0.2085E+00  0.0000E+00  0.6173E-03  0.0000E+00  0.0000E+00  0.1488E-03  0.3516E-03  0.2074E-02  0.0000E+00  0.0000E+00  0.9527E-03  0.1015E+02  0.1002E+02  0.0000E+00  0.0000E+00  0.0000E+00  0.0000E+00  0.0000E+00  0.0000E+00  0.0000E+00  0.0000E+00  0.0000E+00  0.0000E+00  0.0000E+00  0.0000E+00  0.0000E+00  0.0000E+00  0.0000E+00  0.0000E+00  0.0000E+00  0.2809E+00  0.1586E-01  0.0000E+00  0.0000E+00  0.0000E+00  0.0000E+00  0.0000E+00  0.0000E+00  0.0000E+00  0.0000E+00  0.0000E+00  0.0000E+00  0.0000E+00  0.0000E+00  0.0000E+00  0.0000E+00
REACH    3        0    11  0.1834E+01  0.5130E-02  0.5123E-02  0.7896E-05  0.0000E+00  0.1178E-03  0.1152E-03  0.1247E+00  0.1713E-01  0.1718E-01  0.3699E-02  0.3702E-02  0.1930E+00  0.1936E+00  0.0000E+00  0.2803E-03  0.0000E+00  0.0000E+00  0.5337E-04  0.1214E-03  0.5627E-03  0.0000E+00  0.0000E+00  0.1447E-03  0.1023E+02  0.1010E+02  0.0000E+00  0.0000E+00  0.0000E+00  0.0000E+00  0.0000E+00  0.0000E+00  0.0000E+00  0.0000E+00  0.0000E+00  0.0000E+00  0.0000E+00  0.0000E+00  0.0000E+00  0.0000E+00  0.0000E+00  0.0000E+00  0.0000E+00  0.2111E+00  0.3824E-02  0.0000E+00  0.0000E+00  0.0000E+00  0.0000E+00  0.0000E+00  0.0000E+00  0.0000E+00  0.0000E+00  0.0000E+00  0.0000E+00  0.0000E+00  0.0000E+00  0.0000E+00  0.0000E+00
REACH    1        0  1990  0.5790E+01  0.4947E-01  0.4940E-01  0.7735E-04  0.0000E+00  0.1294E+06  0.2365E+03  0.6968E+02  0.1559E+05  0.1557E+05  0.3439E+04  0.3431E+04  0.1983E+03  0.1980E+03  0.4717E+01  0.1425E+02  0.1246E-03  0.8768E-02  0.2372E+01  0.6875E+01  0.3249E+03  0.2680E+03  0.6015E+07  0.5938E+07  0.5684E+04  0.3176E+04  0.0000E+00  0.0000E+00  0.0000E+00  0.0000E+00  0.0000E+00  0.0000E+00  0.0000E+00  0.0000E+00  0.0000E+00  0.0000E+00  0.0000E+00  0.0000E+00  0.0000E+00  0.0000E+00  0.0000E+00  0.0000E+00  0.0000E+00  0.1578E+05  0.3437E+04  0.0000E+00  0.0000E+00  0.0000E+00  0.0000E+00  0.0000E+00  0.0000E+00  0.0000E+00  0.0000E+00  0.0000E+00  0.0000E+00  0.0000E+00  0.0000E+00  0.0000E+00  0.0000E+00
REACH    2        0  1990  0.2233E+01  0.1912E-01  0.1910E-01  0.2542E-04  0.0000E+00  0.3842E+05  0.3814E+05  0.1653E+05  0.5607E+04  0.5600E+04  0.1236E+04  0.1234E+04  0.6669E+02  0.6662E+02  0.0000E+00  0.2723E+01  0.0000E+00  0.1181E-03  0.4726E+00  0.1329E+01  0.1338E+03  0.1121E+03  0.1923E+07  0.1905E+07  0.4010E+04  0.1484E+04  0.0000E+00  0.0000E+00  0.0000E+00  0.0000E+00  0.0000E+00  0.0000E+00  0.0000E+00  0.0000E+00  0.0000E+00  0.0000E+00  0.0000E+00  0.0000E+00  0.0000E+00  0.0000E+00  0.0000E+00  0.0000E+00  0.0000E+00  0.5669E+04  0.1235E+04  0.0000E+00  0.0000E+00  0.0000E+00  0.0000E+00  0.0000E+00  0.0000E+00  0.0000E+00  0.0000E+00  0.0000E+00  0.0000E+00  0.0000E+00  0.0000E+00  0.0000E+00  0.0000E+00
REACH    3        0  1990  0.1834E+01  0.1533E-01  0.1531E-01  0.1625E-04  0.0000E+00  0.4565E+05  0.4539E+05  0.2003E+05  0.5209E+04  0.5204E+04  0.1150E+04  0.1148E+04  0.6835E+02  0.6830E+02  0.0000E+00  0.1994E+01  0.0000E+00  0.6446E-05  0.2588E+00  0.7609E+00  0.1194E+03  0.1053E+03  0.2101E+07  0.2086E+07  0.3167E+04  0.1023E+04  0.0000E+00  0.0000E+00  0.0000E+00  0.0000E+00  0.0000E+00  0.0000E+00  0.0000E+00  0.0000E+00  0.0000E+00  0.0000E+00  0.0000E+00  0.0000E+00  0.0000E+00  0.0000E+00  0.0000E+00  0.0000E+00  0.0000E+00  0.5275E+04  0.1149E+04  0.0000E+00  0.0000E+00  0.0000E+00  0.0000E+00  0.0000E+00  0.0000E+00  0.0000E+00  0.0000E+00  0.0000E+00  0.0000E+00  0.0000E+00  0.0000E+00  0.0000E+00  0.0000E+00
REACH    1        0   9.5  0.5790E+01  0.1320E+00  0.1319E+00  0.7439E-04  0.0000E+00  0.5421E+06  0.1173E+04  0.1123E+03  0.2776E+05  0.2773E+05  0.6112E+04  0.6100E+04  0.5690E+03  0.5678E+03  0.6837E+01  0.2063E+02  0.8628E-04  0.7731E-02  0.6187E+01  0.1371E+02  0.7094E+03  0.6286E+03  0.2762E+08  0.2739E+08  0.1355E+05  0.6378E+04  0.0000E+00  0.0000E+00  0.0000E+00  0.0000E+00  0.0000E+00  0.0000E+00  0.0000E+00  0.0000E+00  0.0000E+00  0.0000E+00  0.0000E+00  0.0000E+00  0.0000E+00  0.0000E+00  0.0000E+00  0.0000E+00  0.0000E+00  0.2831E+05  0.6113E+04  0.0000E+00  0.0000E+00  0.0000E+00  0.0000E+00  0.0000E+00  0.0000E+00  0.0000E+00  0.0000E+00  0.0000E+00  0.0000E+00  0.0000E+00  0.0000E+00  0.0000E+00  0.0000E+00
REACH    2        0   9.5  0.2233E+01  0.5074E-01  0.5071E-01  0.2461E-04  0.0000E+00  0.1604E+06  0.1596E+06  0.2299E+05  0.1044E+05  0.1043E+05  0.2298E+04  0.2295E+04  0.1935E+03  0.1932E+03  0.0000E+00  0.3968E+01  0.0000E+00  0.7188E-04  0.1796E+01  0.3481E+01  0.2908E+03  0.2602E+03  0.8742E+07  0.8687E+07  0.1079E+05  0.2915E+04  0.0000E+00  0.0000E+00  0.0000E+00  0.0000E+00  0.0000E+00  0.0000E+00  0.0000E+00  0.0000E+00  0.0000E+00  0.0000E+00  0.0000E+00  0.0000E+00  0.0000E+00  0.0000E+00  0.0000E+00  0.0000E+00  0.0000E+00  0.1063E+05  0.2298E+04  0.0000E+00  0.0000E+00  0.0000E+00  0.0000E+00  0.0000E+00  0.0000E+00  0.0000E+00  0.0000E+00  0.0000E+00  0.0000E+00  0.0000E+00  0.0000E+00  0.0000E+00  0.0000E+00
REACH    3        0   9.5  0.1834E+01  0.4162E-01  0.4161E-01  0.1584E-04  0.0000E+00  0.1917E+06  0.1909E+06  0.2750E+05  0.9025E+04  0.9018E+04  0.1988E+04  0.1986E+04  0.1939E+03  0.1937E+03  0.0000E+00  0.2869E+01  0.0000E+00  0.1440E-04  0.7715E+00  0.1743E+01  0.2453E+03  0.2262E+03  0.9635E+07  0.9588E+07  0.8887E+04  0.2118E+04  0.0000E+00  0.0000E+00  0.0000E+00  0.0000E+00  0.0000E+00  0.0000E+00  0.0000E+00  0.0000E+00  0.0000E+00  0.0000E+00  0.0000E+00  0.0000E+00  0.0000E+00  0.0000E+00  0.0000E+00  0.0000E+00  0.0000E+00  0.9214E+04  0.1988E+04  0.0000E+00  0.0000E+00  0.0000E+00  0.0000E+00  0.0000E+00  0.0000E+00  0.0000E+00  0.0000E+00  0.0000E+00  0.0000E+00  0.0000E+00  0.0000E+00  0.0000E+00  0.0000E+00
