1
    SWAT Nov 14  VER 2023/Rev 692                                                                        0/ 0/   0      0: 0: 0

    General Input/Output section (file.cio):                                        
    5/19/2025 12:00:00 AM ARCGIS-SWAT interface AV                                  
                                                                                    


       SUB      GIS  MON   AREAkm2  PRECIPmm SNOMELTmm     PETmm      ETmm      SWmm    PERCmm    SURQmm    GW_Qmm    WYLDmm  SYLDt/ha ORGNkg/ha ORGPkg/haNSURQkg/ha SOLPkg/ha SEDPkg/ha LAT Q(mm)LATNO3kg/hGWNO3kg/haCHOLAmic/LCBODU mg/L DOXQ mg/L TNO3kg/ha   QTILEmm TVAPkg/ha
BIGSUB    1        0    4.17227E+01     3.100     0.000    19.115     6.661    61.841     0.000     0.000     0.000     0.027     0.000     0.000     0.000     0.000     0.000     0.000     0.027     0.000     0.000 .00000E+00 0.000E+00 0.000E+00 0.000E+00 0.000E+00 0.000E+00
BIGSUB    2        0    4.22328E+01     3.100     0.000    19.157     6.671    61.838     0.000     0.000     0.000     0.020     0.000     0.000     0.000     0.000     0.000     0.000     0.020     0.000     0.000 .00000E+00 0.000E+00 0.000E+00 0.000E+00 0.000E+00 0.000E+00
BIGSUB    3        0    4.18344E+01     3.100     0.000    19.169     7.015    61.488     0.000     0.000     0.000     0.026     0.000     0.000     0.000     0.000     0.000     0.000     0.026     0.000     0.000 .00000E+00 0.000E+00 0.000E+00 0.000E+00 0.000E+00 0.000E+00
BIGSUB    1        0    5.17227E+01    11.300     0.000    53.156    14.999    57.619     0.000     0.000     0.000     0.460     0.000     0.000     0.000     0.000     0.000     0.000     0.460     0.011     0.000 .00000E+00 0.000E+00 0.000E+00 0.000E+00 0.000E+00 0.000E+00
BIGSUB    2        0    5.22328E+01    11.300     0.000    53.353    15.041    57.695     0.000     0.000     0.000     0.354     0.000     0.000     0.000     0.000     0.000     0.000     0.354     0.009     0.000 .00000E+00 0.000E+00 0.000E+00 0.000E+00 0.000E+00 0.000E+00
BIGSUB    3        0    5.18344E+01    11.300     0.000    53.411    15.825    56.442     0.000     0.000     0.000     0.459     0.000     0.000     0.000     0.000     0.000     0.000     0.459     0.011     0.000 .00000E+00 0.000E+00 0.000E+00 0.000E+00 0.000E+00 0.000E+00
BIGSUB    1        0    6.17227E+01     8.000     0.000    59.726    13.179    52.087     0.000     0.000     0.000     0.417     0.000     0.000     0.000     0.000     0.000     0.000     0.417     0.008     0.000 .00000E+00 0.000E+00 0.000E+00 0.000E+00 0.000E+00 0.000E+00
BIGSUB    2        0    6.22328E+01     8.000     0.000    59.979    13.246    52.177     0.000     0.000     0.000     0.321     0.000     0.000     0.000     0.000     0.000     0.000     0.321     0.006     0.000 .00000E+00 0.000E+00 0.000E+00 0.000E+00 0.000E+00 0.000E+00
BIGSUB    3        0    6.18344E+01     8.000     0.000    60.052    13.940    50.149     0.000     0.000     0.000     0.417     0.000     0.000     0.000     0.000     0.000     0.000     0.417     0.009     0.000 .00000E+00 0.000E+00 0.000E+00 0.000E+00 0.000E+00 0.000E+00
BIGSUB    1        0    7.17227E+01     5.200     0.000    60.300    10.147    47.140     0.000     0.000     0.000     0.000     0.000     0.000     0.000     0.000     0.000     0.000     0.000     0.000     0.000 .00000E+00 0.000E+00 0.000E+00 0.000E+00 0.000E+00 0.000E+00
BIGSUB    2        0    7.22328E+01     5.200     0.000    60.518    10.190    47.187     0.000     0.000     0.000     0.000     0.000     0.000     0.000     0.000     0.000     0.000     0.000     0.000     0.000 .00000E+00 0.000E+00 0.000E+00 0.000E+00 0.000E+00 0.000E+00
BIGSUB    3        0    7.18344E+01     5.200     0.000    60.582    10.808    44.541     0.000     0.000     0.000     0.000     0.000     0.000     0.000     0.000     0.000     0.000     0.000     0.000     0.000 .00000E+00 0.000E+00 0.000E+00 0.000E+00 0.000E+00 0.000E+00
BIGSUB    1        0    8.17227E+01    17.000     0.000    52.299    13.621    49.218     0.000     0.015     0.000     1.257     0.030     0.068     0.008     0.001     0.000     0.007     1.242     0.034     0.000 .00000E+00 0.000E+00 0.000E+00 0.000E+00 0.000E+00 0.000E+00
BIGSUB    2        0    8.22328E+01    17.000     0.000    52.489    13.695    49.486     0.000     0.015     0.000     0.974     0.020     0.049     0.006     0.001     0.000     0.005     0.959     0.026     0.000 .00000E+00 0.000E+00 0.000E+00 0.000E+00 0.000E+00 0.000E+00
BIGSUB    3        0    8.18344E+01    17.000     0.000    52.544    14.154    46.091     0.000     0.007     0.000     1.252     0.013     0.031     0.004     0.000     0.000     0.003     1.245     0.037     0.000 .00000E+00 0.000E+00 0.000E+00 0.000E+00 0.000E+00 0.000E+00
BIGSUB    1        0    9.17227E+01    23.000     0.000    44.899    16.937    53.069     0.000     0.105     0.000     2.246     0.309     0.640     0.078     0.001     0.000     0.061     2.141     0.020     0.000 .00000E+00 0.000E+00 0.000E+00 0.000E+00 0.000E+00 0.000E+00
BIGSUB    2        0    9.22328E+01    23.000     0.000    45.044    17.091    53.659     0.000     0.109     0.000     1.761     0.206     0.467     0.057     0.001     0.000     0.045     1.652     0.015     0.000 .00000E+00 0.000E+00 0.000E+00 0.000E+00 0.000E+00 0.000E+00
BIGSUB    3        0    9.18344E+01    23.000     0.000    45.086    17.371    49.528     0.000     0.078     0.000     2.226     0.209     0.446     0.055     0.001     0.000     0.043     2.148     0.022     0.000 .00000E+00 0.000E+00 0.000E+00 0.000E+00 0.000E+00 0.000E+00
BIGSUB    1        0   10.17227E+01    49.400     0.000    30.701    15.459    77.778     0.000     1.582     0.000     8.525     4.834    11.319     1.386     0.003     0.000     1.081     6.942     0.015     0.000 .00000E+00 0.000E+00 0.000E+00 0.000E+00 0.000E+00 0.000E+00
BIGSUB    2        0   10.22328E+01    49.400     0.000    30.758    15.886    79.398     0.000     1.651     0.000     7.134     3.222     8.317     1.019     0.003     0.000     0.794     5.483     0.020     0.000 .00000E+00 0.000E+00 0.000E+00 0.000E+00 0.000E+00 0.000E+00
BIGSUB    3        0   10.18344E+01    49.400     0.000    30.775    15.804    74.053     0.000     1.389     0.000     8.375     4.013     9.671     1.185     0.003     0.000     0.923     6.986     0.015     0.000 .00000E+00 0.000E+00 0.000E+00 0.000E+00 0.000E+00 0.000E+00
BIGSUB    1        0   11.17227E+01   115.800     0.000    19.407    18.765   119.913     4.037    22.492     0.005    49.772    78.925   109.822    13.452     0.013     0.005    10.536    27.274     0.565     0.000 .00000E+00 0.000E+00 0.000E+00 0.000E+00 0.000E+00 0.000E+00
BIGSUB    2        0   11.22328E+01   115.800     0.000    19.441    18.797   119.983    10.028    23.194     0.013    45.332    52.124    87.146    10.674     0.013     0.005     8.348    22.122     0.488     0.000 .00000E+00 0.000E+00 0.000E+00 0.000E+00 0.000E+00 0.000E+00
BIGSUB    3        0   11.18344E+01   115.800     0.000    19.450    18.924   119.317     1.476    21.773     0.002    49.214    72.422   107.666    13.187     0.012     0.005    10.321    27.439     0.561     0.000 .00000E+00 0.000E+00 0.000E+00 0.000E+00 0.000E+00 0.000E+00
BIGSUB    1        0   12.17227E+01   187.700     0.000    18.251    17.963   119.981    49.998    69.332     1.036   118.345   214.581    64.583     7.910     0.016     0.005     6.441    47.876     1.001     0.002 .00000E+00 0.000E+00 0.000E+00 0.000E+00 0.000E+00 0.000E+00
BIGSUB    2        0   12.22328E+01   187.700     0.000    18.254    17.893   119.999    59.746    69.203     2.296   110.501   138.421    75.122     9.201     0.015     0.007     7.392    38.849     0.827     0.004 .00000E+00 0.000E+00 0.000E+00 0.000E+00 0.000E+00 0.000E+00
BIGSUB    3        0   12.18344E+01   187.700     0.000    18.255    17.987   119.980    48.969    69.448     0.447   118.117   202.349    74.345     9.106     0.016     0.005     7.377    48.141     1.008     0.001 .00000E+00 0.000E+00 0.000E+00 0.000E+00 0.000E+00 0.000E+00
BIGSUB    1        0 1981.17227E+01   420.500     0.000   357.854   127.732   119.981    54.035    93.526     1.041   181.049   298.679   186.432    22.835     0.034     0.010    18.125    86.380     1.656     0.002 .00000E+00 0.000E+00 0.000E+00 0.000E+00 0.000E+00 0.000E+00
BIGSUB    2        0 1981.22328E+01   420.500     0.000   358.993   128.509   119.999    69.774    94.172     2.309   166.398   193.993   171.101    20.957     0.033     0.013    16.583    69.761     1.390     0.004 .00000E+00 0.000E+00 0.000E+00 0.000E+00 0.000E+00 0.000E+00
BIGSUB    3        0 1981.18344E+01   420.500     0.000   359.324   131.826   119.980    50.445    92.695     0.449   180.086   279.006   192.160    23.536     0.033     0.010    18.666    86.860     1.663     0.001 .00000E+00 0.000E+00 0.000E+00 0.000E+00 0.000E+00 0.000E+00
BIGSUB    1        0    1.17227E+01   205.900     0.000    13.359    13.359   120.006    59.769    74.062     8.829   141.611   223.824    30.577     3.745     0.004     0.003     3.007    58.214     0.819     0.016 .00000E+00 0.000E+00 0.000E+00 0.000E+00 0.000E+00 0.000E+00
BIGSUB    2        0    1.22328E+01   205.900     0.000    13.364    13.364   120.011    71.111    74.085    13.573   135.287   144.335    31.607     3.871     0.004     0.005     3.119    46.978     0.651     0.028 .00000E+00 0.000E+00 0.000E+00 0.000E+00 0.000E+00 0.000E+00
BIGSUB    3        0    1.18344E+01   205.900     0.000    13.366    13.366   120.003    59.107    74.041     6.122   139.505   211.257    31.961     3.915     0.004     0.003     3.150    58.868     0.835     0.010 .00000E+00 0.000E+00 0.000E+00 0.000E+00 0.000E+00 0.000E+00
BIGSUB    1        0    2.17227E+01   310.000     0.000    22.544    22.544   120.003    67.072   153.851    34.934   258.488   608.440     1.801     0.221     0.004     0.003     0.198    68.739     0.602     0.060 .00000E+00 0.000E+00 0.000E+00 0.000E+00 0.000E+00 0.000E+00
BIGSUB    2        0    2.22328E+01   310.000     0.000    22.573    22.572   120.006    79.926   153.981    41.659   252.300   392.524     5.162     0.632     0.003     0.005     0.536    55.472     0.465     0.079 .00000E+00 0.000E+00 0.000E+00 0.000E+00 0.000E+00 0.000E+00
BIGSUB    3        0    2.18344E+01   310.000     0.000    22.581    22.581   120.001    66.296   153.727    32.462   256.621   573.906     1.649     0.202     0.004     0.002     0.190    69.501     0.611     0.055 .00000E+00 0.000E+00 0.000E+00 0.000E+00 0.000E+00 0.000E+00
BIGSUB    1        0    3.17227E+01   142.100     0.000    26.536    26.026   118.261    33.214    50.033    50.447   138.254   183.152     0.225     0.028     0.002     0.001     0.023    36.233     0.220     0.062 .00000E+00 0.000E+00 0.000E+00 0.000E+00 0.000E+00 0.000E+00
BIGSUB    2        0    3.22328E+01   142.100     0.000    26.641    26.124   118.255    39.801    50.070    60.379   141.572   118.069     0.490     0.060     0.001     0.001     0.049    29.250     0.166     0.080 .00000E+00 0.000E+00 0.000E+00 0.000E+00 0.000E+00 0.000E+00
BIGSUB    3        0    3.18344E+01   142.100     0.000    26.671    26.363   118.201    32.630    49.990    49.223   137.276   172.837     0.084     0.010     0.002     0.000     0.010    36.559     0.221     0.061 .00000E+00 0.000E+00 0.000E+00 0.000E+00 0.000E+00 0.000E+00
BIGSUB    1        0    4.17227E+01    72.500     0.000    32.404    27.539   116.136    11.994    20.430    41.169    78.602    60.810     0.098     0.012     0.001     0.000     0.009    15.347     0.072     0.031 .00000E+00 0.000E+00 0.000E+00 0.000E+00 0.000E+00 0.000E+00
BIGSUB    2        0    4.22328E+01    72.500     0.000    32.522    27.662   116.425    14.456    20.433    49.287    84.064    39.211     0.214     0.026     0.001     0.000     0.021    12.341     0.054     0.039 .00000E+00 0.000E+00 0.000E+00 0.000E+00 0.000E+00 0.000E+00
BIGSUB    3        0    4.18344E+01    72.500     0.000    32.556    28.725   115.202    11.626    20.398    40.395    77.844    57.281     0.036     0.004     0.001     0.000     0.003    15.431     0.072     0.030 .00000E+00 0.000E+00 0.000E+00 0.000E+00 0.000E+00 0.000E+00
BIGSUB    1        0    5.17227E+01    16.800     0.000    52.498    27.898   102.890     0.000     0.867    20.883    24.737     3.480     0.004     0.000     0.000     0.000     0.000     1.426     0.000     0.008 .00000E+00 0.000E+00 0.000E+00 0.000E+00 0.000E+00 0.000E+00
BIGSUB    2        0    5.22328E+01    16.800     0.000    52.716    28.267   103.103     0.000     0.876    24.782    28.644     2.251     0.008     0.001     0.000     0.000     0.001     1.101     0.000     0.009 .00000E+00 0.000E+00 0.000E+00 0.000E+00 0.000E+00 0.000E+00
BIGSUB    3        0    5.18344E+01    16.800     0.000    52.780    29.863   100.006     0.000     0.838    20.727    24.524     3.209     0.001     0.000     0.000     0.000     0.000     1.431     0.000     0.007 .00000E+00 0.000E+00 0.000E+00 0.000E+00 0.000E+00 0.000E+00
BIGSUB    1        0    6.17227E+01     7.700     0.000    58.457    19.245    91.153     0.000     0.000     1.654     3.122     0.000     0.000     0.000     0.000     0.000     0.000     0.244     0.000     0.000 .00000E+00 0.000E+00 0.000E+00 0.000E+00 0.000E+00 0.000E+00
BIGSUB    2        0    6.22328E+01     7.700     0.000    58.687    19.373    91.283     0.000     0.000     2.869     4.532     0.000     0.000     0.000     0.000     0.000     0.000     0.188     0.000     0.000 .00000E+00 0.000E+00 0.000E+00 0.000E+00 0.000E+00 0.000E+00
BIGSUB    3        0    6.18344E+01     7.700     0.000    58.754    20.832    86.683     0.000     0.000     1.032     2.473     0.000     0.000     0.000     0.000     0.000     0.000     0.243     0.000     0.000 .00000E+00 0.000E+00 0.000E+00 0.000E+00 0.000E+00 0.000E+00
BIGSUB    1        0    7.17227E+01     6.700     0.000    61.193    15.685    82.169     0.000     0.000     0.309     1.285     0.000     0.000     0.000     0.000     0.000     0.000     0.001     0.000     0.000 .00000E+00 0.000E+00 0.000E+00 0.000E+00 0.000E+00 0.000E+00
BIGSUB    2        0    7.22328E+01     6.700     0.000    61.413    15.259    82.724     0.000     0.000     0.736     1.912     0.000     0.000     0.000     0.000     0.000     0.000     0.001     0.000     0.000 .00000E+00 0.000E+00 0.000E+00 0.000E+00 0.000E+00 0.000E+00
BIGSUB    3        0    7.18344E+01     6.700     0.000    61.478    16.825    76.557     0.000     0.000     0.139     1.095     0.000     0.000     0.000     0.000     0.000     0.000     0.001     0.000     0.000 .00000E+00 0.000E+00 0.000E+00 0.000E+00 0.000E+00 0.000E+00
BIGSUB    1        0    8.17227E+01    12.300     0.000    42.110    15.053    78.833     0.000     0.000     0.024     1.290     0.000     0.000     0.000     0.000     0.000     0.000     0.535     0.002     0.000 .00000E+00 0.000E+00 0.000E+00 0.000E+00 0.000E+00 0.000E+00
BIGSUB    2        0    8.22328E+01    12.300     0.000    42.278    14.425    80.160     0.000     0.000     0.058     1.342     0.000     0.000     0.000     0.000     0.000     0.000     0.403     0.001     0.000 .00000E+00 0.000E+00 0.000E+00 0.000E+00 0.000E+00 0.000E+00
BIGSUB    3        0    8.18344E+01    12.300     0.000    42.327    15.576    72.703     0.000     0.000     0.009     1.255     0.000     0.000     0.000     0.000     0.000     0.000     0.531     0.002     0.000 .00000E+00 0.000E+00 0.000E+00 0.000E+00 0.000E+00 0.000E+00
BIGSUB    1        0    9.17227E+01    21.900     0.000    41.236    17.155    80.864     0.000     0.738     0.000     2.910     2.173     0.002     0.000     0.001     0.000     0.000     1.645     0.002     0.000 .00000E+00 0.000E+00 0.000E+00 0.000E+00 0.000E+00 0.000E+00
BIGSUB    2        0    9.22328E+01    21.900     0.000    41.373    16.731    83.043     0.000     0.766     0.000     2.656     1.488     0.004     0.001     0.001     0.000     0.000     1.255     0.002     0.000 .00000E+00 0.000E+00 0.000E+00 0.000E+00 0.000E+00 0.000E+00
BIGSUB    3        0    9.18344E+01    21.900     0.000    41.414    17.622    74.363     0.000     0.631     0.000     2.802     1.698     0.001     0.000     0.001     0.000     0.000     1.656     0.002     0.000 .00000E+00 0.000E+00 0.000E+00 0.000E+00 0.000E+00 0.000E+00
BIGSUB    1        0   10.17227E+01    74.000     0.000    24.610    19.069   114.041     0.641     8.187     0.002    20.761    36.061     0.036     0.004     0.001     0.000     0.003    12.169     0.018     0.000 .00000E+00 0.000E+00 0.000E+00 0.000E+00 0.000E+00 0.000E+00
BIGSUB    2        0   10.22328E+01    74.000     0.000    24.693    19.353   117.687     1.237     8.519     0.004    18.656    24.106     0.080     0.010     0.001     0.000     0.008     9.646     0.016     0.000 .00000E+00 0.000E+00 0.000E+00 0.000E+00 0.000E+00 0.000E+00
BIGSUB    3        0   10.18344E+01    74.000     0.000    24.717    19.460   108.058     0.173     7.446     0.001    20.298    31.293     0.012     0.002     0.001     0.000     0.001    12.457     0.019     0.000 .00000E+00 0.000E+00 0.000E+00 0.000E+00 0.000E+00 0.000E+00
BIGSUB    1        0   11.17227E+01   115.800     0.000    17.490    17.439   119.989    28.362    31.874     0.686    65.416   134.443     0.148     0.018     0.002     0.000     0.014    32.515     0.232     0.000 .00000E+00 0.000E+00 0.000E+00 0.000E+00 0.000E+00 0.000E+00
BIGSUB    2        0   11.22328E+01   115.800     0.000    17.527    17.437   119.996    37.457    31.964     1.418    60.696    86.995     0.327     0.040     0.002     0.001     0.031    26.885     0.193     0.000 .00000E+00 0.000E+00 0.000E+00 0.000E+00 0.000E+00 0.000E+00
BIGSUB    3        0   11.18344E+01   115.800     0.000    17.537    17.481   119.990    23.448    31.524     0.357    63.960   125.428     0.054     0.007     0.002     0.000     0.005    31.761     0.209     0.000 .00000E+00 0.000E+00 0.000E+00 0.000E+00 0.000E+00 0.000E+00
BIGSUB    1        0   12.17227E+01    77.200     0.000    17.266    16.456   119.570    19.063    21.751     4.791    47.881    83.314     0.089     0.011     0.001     0.000     0.008    20.857     0.139     0.002 .00000E+00 0.000E+00 0.000E+00 0.000E+00 0.000E+00 0.000E+00
BIGSUB    2        0   12.22328E+01    77.200     0.000    17.270    16.411   119.659    22.937    21.755     7.746    46.970    53.709     0.198     0.024     0.001     0.000     0.019    16.855     0.106     0.003 .00000E+00 0.000E+00 0.000E+00 0.000E+00 0.000E+00 0.000E+00
BIGSUB    3        0   12.18344E+01    77.200     0.000    17.271    16.652   119.569    18.700    21.750     1.949    45.166    78.604     0.033     0.004     0.001     0.000     0.003    21.037     0.143     0.001 .00000E+00 0.000E+00 0.000E+00 0.000E+00 0.000E+00 0.000E+00
BIGSUB    1        0 1982.17227E+01  1062.900     0.000   409.703   237.466   119.570   220.114   361.794   163.728   784.356  1335.696    32.979     4.039     0.017     0.008     3.264   247.924     2.106     0.178 .00000E+00 0.000E+00 0.000E+00 0.000E+00 0.000E+00 0.000E+00
BIGSUB    2        0 1982.22328E+01  1062.900     0.000   411.059   236.979   119.659   266.925   362.448   202.512   778.631   862.688    38.090     4.665     0.015     0.013     3.783   200.376     1.654     0.239 .00000E+00 0.000E+00 0.000E+00 0.000E+00 0.000E+00 0.000E+00
BIGSUB    3        0 1982.18344E+01  1062.900     0.000   411.453   245.347   119.569   211.981   360.345   152.417   772.819  1255.514    33.831     4.144     0.017     0.005     3.363   249.477     2.113     0.164 .00000E+00 0.000E+00 0.000E+00 0.000E+00 0.000E+00 0.000E+00
BIGSUB    1        0    1.17227E+01   152.700     0.000    17.032    17.032   120.005    39.551    55.695    15.913   110.647   185.643    28.935     3.543     0.002     0.002     2.799    38.395     0.232     0.006 .00000E+00 0.000E+00 0.000E+00 0.000E+00 0.000E+00 0.000E+00
BIGSUB    2        0    1.22328E+01   152.700     0.000    17.055    17.055   120.010    47.278    55.630    18.806   106.257   119.697    25.460     3.118     0.002     0.003     2.458    31.013     0.174     0.007 .00000E+00 0.000E+00 0.000E+00 0.000E+00 0.000E+00 0.000E+00
BIGSUB    3        0    1.18344E+01   152.700     0.000    17.062    17.062   120.002    39.080    55.740    12.697   107.848   175.121    29.396     3.600     0.002     0.002     2.842    38.821     0.239     0.005 .00000E+00 0.000E+00 0.000E+00 0.000E+00 0.000E+00 0.000E+00
BIGSUB    1        0    2.17227E+01   196.000     0.000    24.660    23.975   120.002    29.577   111.186    23.321   166.735   517.041     1.490     0.182     0.003     0.002     0.173    31.442     0.154     0.009 .00000E+00 0.000E+00 0.000E+00 0.000E+00 0.000E+00 0.000E+00
BIGSUB    2        0    2.22328E+01   196.000     0.000    24.721    24.035   120.003    35.539   111.250    28.257   165.874   333.350     4.308     0.528     0.003     0.003     0.444    25.398     0.114     0.012 .00000E+00 0.000E+00 0.000E+00 0.000E+00 0.000E+00 0.000E+00
BIGSUB    3        0    2.18344E+01   196.000     0.000    24.739    24.290   120.001    29.006   111.138    22.227   165.817   487.660     1.621     0.198     0.003     0.001     0.189    31.712     0.156     0.009 .00000E+00 0.000E+00 0.000E+00 0.000E+00 0.000E+00 0.000E+00
BIGSUB    1        0    3.17227E+01   255.900     0.000    36.016    35.885   120.007    49.597   117.953    32.464   201.806   428.253     0.499     0.061     0.003     0.001     0.050    50.287     0.204     0.014 .00000E+00 0.000E+00 0.000E+00 0.000E+00 0.000E+00 0.000E+00
BIGSUB    2        0    3.22328E+01   255.900     0.000    36.102    35.970   120.013    59.470   117.466    39.055   198.477   276.098     1.072     0.131     0.003     0.002     0.106    40.612     0.150     0.017 .00000E+00 0.000E+00 0.000E+00 0.000E+00 0.000E+00 0.000E+00
BIGSUB    3        0    3.18344E+01   255.900     0.000    36.128    36.089   120.003    48.885   118.316    31.665   201.823   403.994     0.187     0.023     0.003     0.001     0.021    50.786     0.208     0.014 .00000E+00 0.000E+00 0.000E+00 0.000E+00 0.000E+00 0.000E+00
BIGSUB    1        0    4.17227E+01   102.500     0.000    33.041    32.153   117.520    21.322    28.403    35.736    92.219   113.264     0.169     0.021     0.001     0.000     0.016    26.776     0.088     0.013 .00000E+00 0.000E+00 0.000E+00 0.000E+00 0.000E+00 0.000E+00
BIGSUB    2        0    4.22328E+01   102.500     0.000    33.173    32.276   117.611    25.709    28.898    42.927    95.017    73.019     0.352     0.043     0.001     0.001     0.033    21.612     0.065     0.016 .00000E+00 0.000E+00 0.000E+00 0.000E+00 0.000E+00 0.000E+00
BIGSUB    3        0    4.18344E+01   102.500     0.000    33.212    32.607   117.193    20.991    28.014    35.093    91.381   106.863     0.065     0.008     0.001     0.000     0.006    27.012     0.089     0.014 .00000E+00 0.000E+00 0.000E+00 0.000E+00 0.000E+00 0.000E+00
BIGSUB    1        0    5.17227E+01    19.800     0.000    45.560    30.769   104.884     0.000     0.466    21.979    25.188     2.116     0.001     0.000     0.000     0.000     0.000     1.402     0.000     0.005 .00000E+00 0.000E+00 0.000E+00 0.000E+00 0.000E+00 0.000E+00
BIGSUB    2        0    5.22328E+01    19.800     0.000    45.768    31.005   105.015     0.000     0.466    25.737    28.907     1.366     0.003     0.000     0.000     0.000     0.000     1.083     0.000     0.005 .00000E+00 0.000E+00 0.000E+00 0.000E+00 0.000E+00 0.000E+00
BIGSUB    3        0    5.18344E+01    19.800     0.000    45.829    32.598   102.733     0.000     0.458    21.558    24.723     1.970     0.001     0.000     0.000     0.000     0.000     1.404     0.001     0.005 .00000E+00 0.000E+00 0.000E+00 0.000E+00 0.000E+00 0.000E+00
BIGSUB    1        0    6.17227E+01    12.300     0.000    48.996    21.856    94.882     0.000     0.030     2.460     3.995     0.136     0.000     0.000     0.000     0.000     0.000     0.414     0.000     0.000 .00000E+00 0.000E+00 0.000E+00 0.000E+00 0.000E+00 0.000E+00
BIGSUB    2        0    6.22328E+01    12.300     0.000    49.226    21.486    95.484     0.000     0.031     3.910     5.574     0.089     0.000     0.000     0.000     0.000     0.000     0.314     0.000     0.000 .00000E+00 0.000E+00 0.000E+00 0.000E+00 0.000E+00 0.000E+00
BIGSUB    3        0    6.18344E+01    12.300     0.000    49.293    23.150    91.444     0.000     0.025     2.020     3.520     0.104     0.000     0.000     0.000     0.000     0.000     0.412     0.000     0.000 .00000E+00 0.000E+00 0.000E+00 0.000E+00 0.000E+00 0.000E+00
BIGSUB    1        0    7.17227E+01    11.000     0.000    49.647    19.187    86.455     0.000     0.000     0.465     1.595     0.000     0.000     0.000     0.000     0.000     0.000     0.247     0.000     0.000 .00000E+00 0.000E+00 0.000E+00 0.000E+00 0.000E+00 0.000E+00
BIGSUB    2        0    7.22328E+01    11.000     0.000    49.851    18.835    87.469     0.000     0.000     1.090     2.342     0.000     0.000     0.000     0.000     0.000     0.000     0.185     0.000     0.000 .00000E+00 0.000E+00 0.000E+00 0.000E+00 0.000E+00 0.000E+00
BIGSUB    3        0    7.18344E+01    11.000     0.000    49.911    20.232    81.975     0.000     0.000     0.235     1.340     0.000     0.000     0.000     0.000     0.000     0.000     0.244     0.000     0.000 .00000E+00 0.000E+00 0.000E+00 0.000E+00 0.000E+00 0.000E+00
BIGSUB    1        0    8.17227E+01    12.800     0.000    45.485    16.705    82.048     0.000     0.000     0.035     1.175     0.000     0.000     0.000     0.000     0.000     0.000     0.472     0.001     0.000 .00000E+00 0.000E+00 0.000E+00 0.000E+00 0.000E+00 0.000E+00
BIGSUB    2        0    8.22328E+01    12.800     0.000    45.668    16.574    83.313     0.000     0.000     0.085     1.251     0.000     0.000     0.000     0.000     0.000     0.000     0.360     0.001     0.000 .00000E+00 0.000E+00 0.000E+00 0.000E+00 0.000E+00 0.000E+00
BIGSUB    3        0    8.18344E+01    12.800     0.000    45.722    17.583    76.693     0.000     0.000     0.017     1.137     0.000     0.000     0.000     0.000     0.000     0.000     0.470     0.001     0.000 .00000E+00 0.000E+00 0.000E+00 0.000E+00 0.000E+00 0.000E+00
BIGSUB    1        0    9.17227E+01    30.900     0.000    38.532    18.601    90.024     0.000     0.951     0.000     4.392     3.599     0.003     0.000     0.002     0.000     0.000     2.958     0.002     0.000 .00000E+00 0.000E+00 0.000E+00 0.000E+00 0.000E+00 0.000E+00
BIGSUB    2        0    9.22328E+01    30.900     0.000    38.675    18.707    91.927     0.000     0.988     0.001     3.843     2.424     0.006     0.001     0.002     0.000     0.001     2.270     0.001     0.000 .00000E+00 0.000E+00 0.000E+00 0.000E+00 0.000E+00 0.000E+00
BIGSUB    3        0    9.18344E+01    30.900     0.000    38.716    19.305    84.080     0.000     0.809     0.000     4.264     2.885     0.001     0.000     0.002     0.000     0.000     2.984     0.002     0.000 .00000E+00 0.000E+00 0.000E+00 0.000E+00 0.000E+00 0.000E+00
BIGSUB    1        0   10.17227E+01    48.800     0.000    32.914    22.415   104.702     0.000     5.323     0.000    12.462    15.938     0.019     0.002     0.002     0.000     0.002     6.768     0.001     0.000 .00000E+00 0.000E+00 0.000E+00 0.000E+00 0.000E+00 0.000E+00
BIGSUB    2        0   10.22328E+01    48.800     0.000    32.978    23.514   106.792     0.000     5.471     0.000    11.165    10.557     0.041     0.005     0.002     0.000     0.004     5.246     0.001     0.000 .00000E+00 0.000E+00 0.000E+00 0.000E+00 0.000E+00 0.000E+00
BIGSUB    3        0   10.18344E+01    48.800     0.000    32.997    23.307    98.206     0.000     4.888     0.000    12.113    13.819     0.007     0.001     0.002     0.000     0.001     6.864     0.001     0.000 .00000E+00 0.000E+00 0.000E+00 0.000E+00 0.000E+00 0.000E+00
BIGSUB    1        0   11.17227E+01    56.000     0.000    23.556    18.222   118.128     0.988    13.603     0.005    22.869    39.509     0.049     0.006     0.002     0.000     0.005     8.995     0.024     0.000 .00000E+00 0.000E+00 0.000E+00 0.000E+00 0.000E+00 0.000E+00
BIGSUB    2        0   11.22328E+01    56.000     0.000    23.582    18.702   119.631     2.652    13.786     0.013    21.472    25.804     0.108     0.013     0.002     0.000     0.010     7.352     0.023     0.000 .00000E+00 0.000E+00 0.000E+00 0.000E+00 0.000E+00 0.000E+00
BIGSUB    3        0   11.18344E+01    56.000     0.000    23.589    18.711   112.148     0.334    13.016     0.002    22.512    35.457     0.018     0.002     0.002     0.000     0.002     9.235     0.025     0.000 .00000E+00 0.000E+00 0.000E+00 0.000E+00 0.000E+00 0.000E+00
BIGSUB    1        0   12.17227E+01   212.000     0.000    14.288    14.228   119.958    58.303    79.271     1.622   137.461   228.924     0.316     0.039     0.003     0.001     0.030    56.242     0.329     0.001 .00000E+00 0.000E+00 0.000E+00 0.000E+00 0.000E+00 0.000E+00
BIGSUB    2        0   12.22328E+01   212.000     0.000    14.291    14.193   119.979    70.777    79.243     3.518   128.863   147.595     0.662     0.081     0.003     0.001     0.062    45.693     0.257     0.001 .00000E+00 0.000E+00 0.000E+00 0.000E+00 0.000E+00 0.000E+00
BIGSUB    3        0   12.18344E+01   212.000     0.000    14.292    14.222   119.963    53.121    79.072     0.776   135.825   215.447     0.120     0.015     0.003     0.000     0.011    55.682     0.317     0.000 .00000E+00 0.000E+00 0.000E+00 0.000E+00 0.000E+00 0.000E+00
BIGSUB    1        0 1983.17227E+01  1110.700     0.000   409.729   271.030   119.958   199.337   412.882   134.002   780.545  1534.423    31.481     3.855     0.019     0.006     3.074   224.397     1.035     0.048 .00000E+00 0.000E+00 0.000E+00 0.000E+00 0.000E+00 0.000E+00
BIGSUB    2        0 1983.22328E+01  1110.700     0.000   411.092   272.352   119.979   241.425   413.229   163.400   769.041   989.999    32.011     3.920     0.017     0.010     3.118   181.138     0.787     0.059 .00000E+00 0.000E+00 0.000E+00 0.000E+00 0.000E+00 0.000E+00
BIGSUB    3        0 1983.18344E+01  1110.700     0.000   411.488   279.156   119.963   191.418   411.477   126.289   772.303  1443.320    31.415     3.847     0.018     0.004     3.072   225.626     1.040     0.047 .00000E+00 0.000E+00 0.000E+00 0.000E+00 0.000E+00 0.000E+00
BIGSUB    1        0    1.17227E+01   211.400     0.000    14.115    14.115   120.006    58.112    81.781    21.641   160.526   284.117    29.552     3.618     0.002     0.002     2.883    56.399     0.234     0.009 .00000E+00 0.000E+00 0.000E+00 0.000E+00 0.000E+00 0.000E+00
BIGSUB    2        0    1.22328E+01   211.400     0.000    14.132    14.132   120.011    69.157    81.721    25.808   153.909   183.176    27.439     3.359     0.002     0.003     2.669    45.510     0.176     0.012 .00000E+00 0.000E+00 0.000E+00 0.000E+00 0.000E+00 0.000E+00
BIGSUB    3        0    1.18344E+01   211.400     0.000    14.137    14.137   120.002    57.462    81.838    17.940   157.455   268.032    30.307     3.710     0.002     0.002     2.956    57.027     0.241     0.008 .00000E+00 0.000E+00 0.000E+00 0.000E+00 0.000E+00 0.000E+00
BIGSUB    1        0    2.17227E+01   434.000     0.000    21.638    21.638   120.005    85.468   242.418    43.541   370.701   665.109     1.270     0.158     0.002     0.002     0.132    83.586     0.231     0.022 .00000E+00 0.000E+00 0.000E+00 0.000E+00 0.000E+00 0.000E+00
BIGSUB    2        0    2.22328E+01   434.000     0.000    21.695    21.695   120.009   101.691   242.315    52.122   363.269   428.872     3.256     0.399     0.002     0.004     0.327    67.432     0.169     0.026 .00000E+00 0.000E+00 0.000E+00 0.000E+00 0.000E+00 0.000E+00
BIGSUB    3        0    2.18344E+01   434.000     0.000    21.712    21.712   120.002    84.481   242.525    41.830   369.952   627.416     0.760     0.093     0.002     0.001     0.087    84.497     0.236     0.021 .00000E+00 0.000E+00 0.000E+00 0.000E+00 0.000E+00 0.000E+00
BIGSUB    1        0    3.17227E+01   258.500     0.000    31.952    31.823   120.008    59.510   106.615    63.740   233.247   256.843     0.420     0.052     0.001     0.001     0.040    61.036     0.116     0.028 .00000E+00 0.000E+00 0.000E+00 0.000E+00 0.000E+00 0.000E+00
BIGSUB    2        0    3.22328E+01   258.500     0.000    32.080    31.949   120.014    71.087   106.605    76.055   234.148   165.578     0.831     0.102     0.001     0.001     0.079    49.257     0.084     0.033 .00000E+00 0.000E+00 0.000E+00 0.000E+00 0.000E+00 0.000E+00
BIGSUB    3        0    3.18344E+01   258.500     0.000    32.118    32.037   120.003    58.690   106.566    62.487   232.502   242.341     0.167     0.020     0.001     0.000     0.016    61.653     0.118     0.028 .00000E+00 0.000E+00 0.000E+00 0.000E+00 0.000E+00 0.000E+00
BIGSUB    1        0    4.17227E+01    79.600     0.000    42.399    39.073   116.850    12.538    14.956    54.649    92.057    53.785     0.068     0.008     0.001     0.000     0.006    20.372     0.030     0.015 .00000E+00 0.000E+00 0.000E+00 0.000E+00 0.000E+00 0.000E+00
BIGSUB    2        0    4.22328E+01    79.600     0.000    42.532    39.193   116.900    15.529    15.188    65.282    99.439    34.676     0.133     0.016     0.001     0.000     0.013    16.474     0.023     0.018 .00000E+00 0.000E+00 0.000E+00 0.000E+00 0.000E+00 0.000E+00
BIGSUB    3        0    4.18344E+01    79.600     0.000    42.571    40.068   116.398    11.975    14.746    53.718    90.933    50.696     0.027     0.003     0.001     0.000     0.003    20.442     0.030     0.015 .00000E+00 0.000E+00 0.000E+00 0.000E+00 0.000E+00 0.000E+00
BIGSUB    1        0    5.17227E+01    41.000     0.000    50.941    39.732   109.681     0.180     4.176    31.748    42.105    12.054     0.010     0.001     0.001     0.000     0.001     4.192     0.001     0.004 .00000E+00 0.000E+00 0.000E+00 0.000E+00 0.000E+00 0.000E+00
BIGSUB    2        0    5.22328E+01    41.000     0.000    51.145    39.918   110.235     0.327     4.191    36.127    46.028     7.795     0.020     0.002     0.001     0.000     0.002     3.325     0.001     0.005 .00000E+00 0.000E+00 0.000E+00 0.000E+00 0.000E+00 0.000E+00
BIGSUB    3        0    5.18344E+01    41.000     0.000    51.205    41.703   107.471     0.059     4.123    30.269    40.480    11.227     0.004     0.000     0.001     0.000     0.000     4.150     0.001     0.004 .00000E+00 0.000E+00 0.000E+00 0.000E+00 0.000E+00 0.000E+00
BIGSUB    1        0    6.17227E+01    23.600     0.000    53.037    32.207    99.676     0.000     0.118     3.425     6.389     0.343     0.000     0.000     0.000     0.000     0.000     1.277     0.001     0.000 .00000E+00 0.000E+00 0.000E+00 0.000E+00 0.000E+00 0.000E+00
BIGSUB    2        0    6.22328E+01    23.600     0.000    53.266    32.430   100.299     0.000     0.121     5.917     8.905     0.227     0.000     0.000     0.000     0.000     0.000     0.983     0.000     0.000 .00000E+00 0.000E+00 0.000E+00 0.000E+00 0.000E+00 0.000E+00
BIGSUB    3        0    6.18344E+01    23.600     0.000    53.332    33.915    95.772     0.000     0.102     2.698     5.607     0.275     0.000     0.000     0.000     0.000     0.000     1.278     0.001     0.000 .00000E+00 0.000E+00 0.000E+00 0.000E+00 0.000E+00 0.000E+00
BIGSUB    1        0    7.17227E+01     6.900     0.000    54.245    16.529    90.035     0.000     0.000     0.618     1.903     0.000     0.000     0.000     0.000     0.000     0.000     0.031     0.000     0.000 .00000E+00 0.000E+00 0.000E+00 0.000E+00 0.000E+00 0.000E+00
BIGSUB    2        0    7.22328E+01     6.900     0.000    54.455    16.659    90.530     0.000     0.000     1.520     3.049     0.000     0.000     0.000     0.000     0.000     0.000     0.024     0.000     0.000 .00000E+00 0.000E+00 0.000E+00 0.000E+00 0.000E+00 0.000E+00
BIGSUB    3        0    7.18344E+01     6.900     0.000    54.516    17.838    84.823     0.000     0.000     0.326     1.579     0.000     0.000     0.000     0.000     0.000     0.000     0.030     0.000     0.000 .00000E+00 0.000E+00 0.000E+00 0.000E+00 0.000E+00 0.000E+00
BIGSUB    1        0    8.17227E+01    13.300     0.000    45.388    16.158    86.235     0.000     0.001     0.048     1.918     0.001     0.000     0.000     0.000     0.000     0.000     0.928     0.001     0.000 .00000E+00 0.000E+00 0.000E+00 0.000E+00 0.000E+00 0.000E+00
BIGSUB    2        0    8.22328E+01    13.300     0.000    45.573    15.988    87.120     0.000     0.001     0.117     1.960     0.000     0.000     0.000     0.000     0.000     0.000     0.712     0.001     0.000 .00000E+00 0.000E+00 0.000E+00 0.000E+00 0.000E+00 0.000E+00
BIGSUB    3        0    8.18344E+01    13.300     0.000    45.627    16.979    80.204     0.000     0.000     0.024     1.868     0.000     0.000     0.000     0.000     0.000     0.000     0.926     0.001     0.000 .00000E+00 0.000E+00 0.000E+00 0.000E+00 0.000E+00 0.000E+00
BIGSUB    1        0    9.17227E+01    15.700     0.000    36.765    14.981    85.479     0.000     0.161     0.008     2.154     0.339     0.000     0.000     0.000     0.000     0.000     1.307     0.001     0.000 .00000E+00 0.000E+00 0.000E+00 0.000E+00 0.000E+00 0.000E+00
BIGSUB    2        0    9.22328E+01    15.700     0.000    36.857    14.731    86.913     0.000     0.170     0.018     2.004     0.234     0.001     0.000     0.000     0.000     0.000     1.000     0.001     0.000 .00000E+00 0.000E+00 0.000E+00 0.000E+00 0.000E+00 0.000E+00
BIGSUB    3        0    9.18344E+01    15.700     0.000    36.883    15.490    78.978     0.000     0.115     0.003     2.093     0.212     0.000     0.000     0.000     0.000     0.000     1.314     0.001     0.000 .00000E+00 0.000E+00 0.000E+00 0.000E+00 0.000E+00 0.000E+00
BIGSUB    1        0   10.17227E+01    79.100     0.000    30.912    23.703   114.497     0.588    14.016     0.020    26.110    44.492     0.046     0.006     0.002     0.000     0.004    11.554     0.013     0.000 .00000E+00 0.000E+00 0.000E+00 0.000E+00 0.000E+00 0.000E+00
BIGSUB    2        0   10.22328E+01    79.100     0.000    30.986    23.839   117.317     1.107    14.330     0.045    24.247    29.268     0.096     0.012     0.002     0.000     0.009     9.246     0.013     0.000 .00000E+00 0.000E+00 0.000E+00 0.000E+00 0.000E+00 0.000E+00
BIGSUB    3        0   10.18344E+01    79.100     0.000    31.008    24.232   108.507     0.154    13.076     0.006    25.477    39.341     0.017     0.002     0.002     0.000     0.002    11.888     0.014     0.000 .00000E+00 0.000E+00 0.000E+00 0.000E+00 0.000E+00 0.000E+00
BIGSUB    1        0   11.17227E+01   122.500     0.000    14.895    14.798   119.995    27.055    44.464     0.358    71.955   172.427     0.123     0.015     0.002     0.000     0.012    26.743     0.122     0.000 .00000E+00 0.000E+00 0.000E+00 0.000E+00 0.000E+00 0.000E+00
BIGSUB    2        0   11.22328E+01   122.500     0.000    14.923    14.770   120.002    35.129    44.349     0.779    67.700   111.503     0.260     0.032     0.002     0.000     0.024    22.095     0.101     0.000 .00000E+00 0.000E+00 0.000E+00 0.000E+00 0.000E+00 0.000E+00
BIGSUB    3        0   11.18344E+01   122.500     0.000    14.931    14.858   119.994    22.177    44.296     0.136    70.719   161.152     0.047     0.006     0.002     0.000     0.004    25.914     0.111     0.000 .00000E+00 0.000E+00 0.000E+00 0.000E+00 0.000E+00 0.000E+00
BIGSUB    1        0   12.17227E+01   185.000     0.000    13.514    13.434   119.994    48.109    76.008     8.706   132.852   221.850     0.262     0.032     0.002     0.001     0.024    47.554     0.187     0.002 .00000E+00 0.000E+00 0.000E+00 0.000E+00 0.000E+00 0.000E+00
BIGSUB    2        0   12.22328E+01   185.000     0.000    13.513    13.411   120.004    57.316    76.090    11.322   126.517   143.010     0.520     0.064     0.001     0.001     0.049    38.379     0.144     0.003 .00000E+00 0.000E+00 0.000E+00 0.000E+00 0.000E+00 0.000E+00
BIGSUB    3        0   12.18344E+01   185.000     0.000    13.513    13.426   119.992    47.581    75.921     5.949   130.490   209.333     0.104     0.013     0.002     0.000     0.010    48.086     0.192     0.001 .00000E+00 0.000E+00 0.000E+00 0.000E+00 0.000E+00 0.000E+00
BIGSUB    1        0 1984.17227E+01  1470.600     0.000   409.801   278.190   119.994   291.560   584.713   228.503  1141.916  1711.360    31.752     3.889     0.013     0.007     3.102   314.977     0.937     0.080 .00000E+00 0.000E+00 0.000E+00 0.000E+00 0.000E+00 0.000E+00
BIGSUB    2        0 1984.22328E+01  1470.600     0.000   411.158   278.716   120.004   351.344   585.081   275.113  1131.175  1104.339    32.556     3.986     0.012     0.010     3.171   254.437     0.714     0.097 .00000E+00 0.000E+00 0.000E+00 0.000E+00 0.000E+00 0.000E+00
BIGSUB    3        0 1984.18344E+01  1470.600     0.000   411.553   286.394   119.992   282.580   583.308   215.386  1129.155  1610.025    31.432     3.848     0.013     0.004     3.076   317.204     0.946     0.078 .00000E+00 0.000E+00 0.000E+00 0.000E+00 0.000E+00 0.000E+00
BIGSUB    1        0    1.17227E+01   162.300     0.000    13.058    13.058   120.007    49.528    50.730    28.986   129.314   155.573    26.908     3.294     0.001     0.001     2.617    48.668     0.149     0.008 .00000E+00 0.000E+00 0.000E+00 0.000E+00 0.000E+00 0.000E+00
BIGSUB    2        0    1.22328E+01   162.300     0.000    13.076    13.076   120.013    58.954    50.667    34.994   126.071   100.309    23.071     2.824     0.001     0.002     2.238    39.272     0.114     0.011 .00000E+00 0.000E+00 0.000E+00 0.000E+00 0.000E+00 0.000E+00
BIGSUB    3        0    1.18344E+01   162.300     0.000    13.081    13.081   120.003    48.967    50.774    26.829   127.682   146.755    27.230     3.333     0.001     0.001     2.647    49.208     0.153     0.008 .00000E+00 0.000E+00 0.000E+00 0.000E+00 0.000E+00 0.000E+00
BIGSUB    1        0    2.17227E+01   217.300     0.000    16.282    16.282   120.003    53.542    94.498    36.260   185.930   309.476     2.789     0.341     0.001     0.001     0.294    54.024     0.132     0.011 .00000E+00 0.000E+00 0.000E+00 0.000E+00 0.000E+00 0.000E+00
BIGSUB    2        0    2.22328E+01   217.300     0.000    16.331    16.331   120.006    63.753    94.626    43.428   183.032   199.463     5.331     0.652     0.001     0.002     0.540    43.586     0.100     0.013 .00000E+00 0.000E+00 0.000E+00 0.000E+00 0.000E+00 0.000E+00
BIGSUB    3        0    2.18344E+01   217.300     0.000    16.345    16.345   120.001    52.906    94.426    35.172   185.305   292.048     3.271     0.400     0.001     0.001     0.343    54.609     0.134     0.010 .00000E+00 0.000E+00 0.000E+00 0.000E+00 0.000E+00 0.000E+00
BIGSUB    1        0    3.17227E+01   192.100     0.000    34.423    31.991   120.008    43.460    70.516    46.034   163.027   187.469     0.215     0.027     0.002     0.000     0.022    44.886     0.088     0.012 .00000E+00 0.000E+00 0.000E+00 0.000E+00 0.000E+00 0.000E+00
BIGSUB    2        0    3.22328E+01   192.100     0.000    34.531    32.095   120.015    52.168    70.260    55.001   163.428   120.850     0.565     0.069     0.002     0.001     0.058    36.249     0.067     0.015 .00000E+00 0.000E+00 0.000E+00 0.000E+00 0.000E+00 0.000E+00
BIGSUB    3        0    3.18344E+01   192.100     0.000    34.563    32.663   120.003    42.471    70.679    45.137   162.567   176.825     0.100     0.014     0.002     0.000     0.012    45.212     0.089     0.012 .00000E+00 0.000E+00 0.000E+00 0.000E+00 0.000E+00 0.000E+00
BIGSUB    1        0    4.17227E+01    68.200     0.000    34.829    34.452   118.592    12.406     7.563    40.765    69.530    25.910     0.050     0.006     0.001     0.000     0.005    19.503     0.033     0.008 .00000E+00 0.000E+00 0.000E+00 0.000E+00 0.000E+00 0.000E+00
BIGSUB    2        0    4.22328E+01    68.200     0.000    34.960    34.577   118.709    15.194     7.879    48.805    74.479    16.705     0.097     0.012     0.001     0.000     0.009    15.753     0.025     0.010 .00000E+00 0.000E+00 0.000E+00 0.000E+00 0.000E+00 0.000E+00
BIGSUB    3        0    4.18344E+01    68.200     0.000    34.999    34.764   118.417    12.148     7.288    39.980    68.583    24.438     0.021     0.003     0.001     0.000     0.002    19.664     0.033     0.008 .00000E+00 0.000E+00 0.000E+00 0.000E+00 0.000E+00 0.000E+00
BIGSUB    1        0    5.17227E+01    23.500     0.000    47.410    31.305   108.129     0.000     0.773    22.208    26.652     2.681     0.002     0.000     0.001     0.000     0.000     2.051     0.000     0.002 .00000E+00 0.000E+00 0.000E+00 0.000E+00 0.000E+00 0.000E+00
BIGSUB    2        0    5.22328E+01    23.500     0.000    47.619    31.589   108.395     0.000     0.779    26.090    30.399     1.730     0.004     0.000     0.001     0.000     0.000     1.583     0.000     0.003 .00000E+00 0.000E+00 0.000E+00 0.000E+00 0.000E+00 0.000E+00
BIGSUB    3        0    5.18344E+01    23.500     0.000    47.680    33.243   106.033     0.000     0.749    20.553    24.933     2.459     0.001     0.000     0.001     0.000     0.000     2.055     0.000     0.002 .00000E+00 0.000E+00 0.000E+00 0.000E+00 0.000E+00 0.000E+00
BIGSUB    1        0    6.17227E+01    15.300     0.000    45.518    23.587    98.939     0.000     0.000     2.397     4.668     0.000     0.000     0.000     0.000     0.000     0.000     0.993     0.000     0.000 .00000E+00 0.000E+00 0.000E+00 0.000E+00 0.000E+00 0.000E+00
BIGSUB    2        0    6.22328E+01    15.300     0.000    45.731    23.861    99.139     0.000     0.000     3.985     6.286     0.000     0.000     0.000     0.000     0.000     0.000     0.765     0.000     0.000 .00000E+00 0.000E+00 0.000E+00 0.000E+00 0.000E+00 0.000E+00
BIGSUB    3        0    6.18344E+01    15.300     0.000    45.794    25.026    95.407     0.000     0.000     1.988     4.224     0.000     0.000     0.000     0.000     0.000     0.000     0.991     0.000     0.000 .00000E+00 0.000E+00 0.000E+00 0.000E+00 0.000E+00 0.000E+00
BIGSUB    1        0    7.17227E+01     7.500     0.000    44.489    15.925    90.471     0.000     0.000     0.447     1.526     0.000     0.000     0.000     0.000     0.000     0.000     0.059     0.000     0.000 .00000E+00 0.000E+00 0.000E+00 0.000E+00 0.000E+00 0.000E+00
BIGSUB    2        0    7.22328E+01     7.500     0.000    44.685    16.038    90.568     0.000     0.000     1.018     2.291     0.000     0.000     0.000     0.000     0.000     0.000     0.045     0.000     0.000 .00000E+00 0.000E+00 0.000E+00 0.000E+00 0.000E+00 0.000E+00
BIGSUB    3        0    7.18344E+01     7.500     0.000    44.742    17.044    85.822     0.000     0.000     0.237     1.289     0.000     0.000     0.000     0.000     0.000     0.000     0.058     0.000     0.000 .00000E+00 0.000E+00 0.000E+00 0.000E+00 0.000E+00 0.000E+00
BIGSUB    1        0    8.17227E+01    13.100     0.000    50.408    15.425    86.906     0.000     0.338     0.024     1.862     1.229     0.001     0.000     0.001     0.000     0.000     0.734     0.001     0.000 .00000E+00 0.000E+00 0.000E+00 0.000E+00 0.000E+00 0.000E+00
BIGSUB    2        0    8.22328E+01    13.100     0.000    50.605    15.250    87.386     0.000     0.339     0.058     1.883     0.794     0.002     0.000     0.001     0.000     0.000     0.565     0.001     0.000 .00000E+00 0.000E+00 0.000E+00 0.000E+00 0.000E+00 0.000E+00
BIGSUB    3        0    8.18344E+01    13.100     0.000    50.663    16.394    81.319     0.000     0.300     0.009     1.798     1.009     0.000     0.000     0.001     0.000     0.000     0.742     0.001     0.000 .00000E+00 0.000E+00 0.000E+00 0.000E+00 0.000E+00 0.000E+00
BIGSUB    1        0    9.17227E+01    28.200     0.000    42.310    20.431    91.357     0.000     0.270     0.003     3.812     1.002     0.001     0.000     0.001     0.000     0.000     2.987     0.002     0.000 .00000E+00 0.000E+00 0.000E+00 0.000E+00 0.000E+00 0.000E+00
BIGSUB    2        0    9.22328E+01    28.200     0.000    42.460    20.258    92.713     0.000     0.280     0.007     3.239     0.671     0.001     0.000     0.000     0.000     0.000     2.287     0.001     0.000 .00000E+00 0.000E+00 0.000E+00 0.000E+00 0.000E+00 0.000E+00
BIGSUB    3        0    9.18344E+01    28.200     0.000    42.504    21.081    85.172     0.000     0.212     0.001     3.745     0.732     0.000     0.000     0.000     0.000     0.000     2.993     0.002     0.000 .00000E+00 0.000E+00 0.000E+00 0.000E+00 0.000E+00 0.000E+00
BIGSUB    1        0   10.17227E+01    36.600     0.000    34.861    17.171   100.382     0.000     6.111     0.000    10.318    30.991     0.013     0.002     0.002     0.000     0.001     3.783     0.001     0.000 .00000E+00 0.000E+00 0.000E+00 0.000E+00 0.000E+00 0.000E+00
BIGSUB    2        0   10.22328E+01    36.600     0.000    34.939    17.563   102.238     0.000     6.129     0.000     9.544    20.224     0.031     0.004     0.002     0.000     0.003     2.905     0.001     0.000 .00000E+00 0.000E+00 0.000E+00 0.000E+00 0.000E+00 0.000E+00
BIGSUB    3        0   10.18344E+01    36.600     0.000    34.962    17.726    93.923     0.000     5.820     0.000    10.067    27.613     0.005     0.001     0.002     0.000     0.001     3.834     0.001     0.000 .00000E+00 0.000E+00 0.000E+00 0.000E+00 0.000E+00 0.000E+00
BIGSUB    1        0   11.17227E+01    60.700     0.000    23.734    18.787   114.588     0.452    18.990     0.013    27.790    64.654     0.060     0.007     0.004     0.000     0.006     8.484     0.016     0.000 .00000E+00 0.000E+00 0.000E+00 0.000E+00 0.000E+00 0.000E+00
BIGSUB    2        0   11.22328E+01    60.700     0.000    23.749    19.277   116.902     0.854    19.270     0.030    26.526    42.149     0.127     0.016     0.004     0.000     0.012     6.861     0.015     0.000 .00000E+00 0.000E+00 0.000E+00 0.000E+00 0.000E+00 0.000E+00
BIGSUB    3        0   11.18344E+01    60.700     0.000    23.753    19.364   108.387     0.118    18.102     0.004    27.229    58.166     0.023     0.003     0.004     0.000     0.002     8.827     0.017     0.000 .00000E+00 0.000E+00 0.000E+00 0.000E+00 0.000E+00 0.000E+00
BIGSUB    1        0   12.17227E+01   162.600     0.000    15.964    15.872   119.978    39.531    59.046     0.629    99.366   123.193     0.130     0.016     0.004     0.000     0.012    39.405     0.190     0.000 .00000E+00 0.000E+00 0.000E+00 0.000E+00 0.000E+00 0.000E+00
BIGSUB    2        0   12.22328E+01   162.600     0.000    15.966    15.843   119.999    49.561    58.892     1.333    92.787    79.526     0.266     0.033     0.003     0.001     0.025    32.205     0.155     0.000 .00000E+00 0.000E+00 0.000E+00 0.000E+00 0.000E+00 0.000E+00
BIGSUB    3        0   12.18344E+01   162.600     0.000    15.967    15.877   119.978    34.390    58.844     0.306    98.116   115.261     0.052     0.008     0.003     0.000     0.005    38.705     0.180     0.000 .00000E+00 0.000E+00 0.000E+00 0.000E+00 0.000E+00 0.000E+00
BIGSUB    1        0 1985.17227E+01   987.400     0.000   403.285   254.289   119.978   198.920   308.836   177.766   723.795   902.179    30.166     3.693     0.016     0.004     2.957   225.576     0.612     0.042 .00000E+00 0.000E+00 0.000E+00 0.000E+00 0.000E+00 0.000E+00
BIGSUB    2        0 1985.22328E+01   987.400     0.000   404.655   255.758   119.999   240.484   309.121   214.748   719.964   582.420    29.495     3.611     0.015     0.005     2.886   182.076     0.480     0.052 .00000E+00 0.000E+00 0.000E+00 0.000E+00 0.000E+00 0.000E+00
BIGSUB    3        0 1985.18344E+01   987.400     0.000   405.053   262.607   119.978   191.000   307.194   170.216   715.536   845.307    30.703     3.762     0.015     0.003     3.012   226.896     0.611     0.040 .00000E+00 0.000E+00 0.000E+00 0.000E+00 0.000E+00 0.000E+00
BIGSUB    1        0    1.17227E+01   296.100     0.000    14.584    14.584   120.004    75.276   132.481    14.590   220.761   406.340    29.496     3.610     0.002     0.003     2.888    73.090     0.261     0.005 .00000E+00 0.000E+00 0.000E+00 0.000E+00 0.000E+00 0.000E+00
BIGSUB    2        0    1.22328E+01   296.100     0.000    14.610    14.610   120.008    89.505   132.572    17.927   210.208   261.926    28.162     3.446     0.002     0.004     2.750    58.968     0.202     0.007 .00000E+00 0.000E+00 0.000E+00 0.000E+00 0.000E+00 0.000E+00
BIGSUB    3        0    1.18344E+01   296.100     0.000    14.618    14.618   120.002    74.431   132.481    10.684   217.613   383.427    30.297     3.708     0.002     0.003     2.966    73.900     0.267     0.004 .00000E+00 0.000E+00 0.000E+00 0.000E+00 0.000E+00 0.000E+00
BIGSUB    1        0    2.17227E+01   312.300     0.000    20.015    20.015   120.008    64.635   163.313    40.712   268.595   587.104     0.585     0.073     0.001     0.001     0.063    63.508     0.150     0.016 .00000E+00 0.000E+00 0.000E+00 0.000E+00 0.000E+00 0.000E+00
BIGSUB    2        0    2.22328E+01   312.300     0.000    20.078    20.078   120.015    76.960   163.146    48.532   264.202   378.456     1.358     0.168     0.001     0.002     0.140    51.237     0.114     0.021 .00000E+00 0.000E+00 0.000E+00 0.000E+00 0.000E+00 0.000E+00
BIGSUB    3        0    2.18344E+01   312.300     0.000    20.097    20.097   120.003    63.868   163.418    38.476   267.093   553.959     0.259     0.036     0.001     0.001     0.034    64.192     0.153     0.016 .00000E+00 0.000E+00 0.000E+00 0.000E+00 0.000E+00 0.000E+00
BIGSUB    1        0    3.17227E+01   182.800     0.000    31.817    30.980   116.617    50.305    54.130    56.991   167.346   129.094     0.188     0.023     0.001     0.000     0.018    54.531     0.099     0.019 .00000E+00 0.000E+00 0.000E+00 0.000E+00 0.000E+00 0.000E+00
BIGSUB    2        0    3.22328E+01   182.800     0.000    31.913    31.077   116.622    60.109    54.418    67.986   168.450    83.216     0.358     0.045     0.001     0.001     0.034    44.009     0.075     0.024 .00000E+00 0.000E+00 0.000E+00 0.000E+00 0.000E+00 0.000E+00
BIGSUB    3        0    3.18344E+01   182.800     0.000    31.941    31.356   116.364    49.647    53.845    55.609   166.191   121.810     0.077     0.011     0.001     0.000     0.008    55.100     0.101     0.019 .00000E+00 0.000E+00 0.000E+00 0.000E+00 0.000E+00 0.000E+00
BIGSUB    1        0    4.17227E+01   117.500     0.000    33.594    33.045   120.008    21.567    33.713    49.360   109.051   133.667     0.078     0.009     0.001     0.000     0.007    24.087     0.037     0.011 .00000E+00 0.000E+00 0.000E+00 0.000E+00 0.000E+00 0.000E+00
BIGSUB    2        0    4.22328E+01   117.500     0.000    33.716    33.170   120.015    26.292    33.413    58.996   114.161    86.179     0.159     0.020     0.001     0.000     0.015    19.481     0.028     0.014 .00000E+00 0.000E+00 0.000E+00 0.000E+00 0.000E+00 0.000E+00
BIGSUB    3        0    4.18344E+01   117.500     0.000    33.751    33.348   120.003    20.909    33.926    48.424   108.380   126.069     0.030     0.004     0.001     0.000     0.003    24.190     0.037     0.011 .00000E+00 0.000E+00 0.000E+00 0.000E+00 0.000E+00 0.000E+00
BIGSUB    1        0    5.17227E+01    35.300     0.000    55.390    35.392   109.076     3.152     2.652    32.435    44.855     4.680     0.029     0.004     0.000     0.000     0.003     7.908     0.012     0.004 .00000E+00 0.000E+00 0.000E+00 0.000E+00 0.000E+00 0.000E+00
BIGSUB    2        0    5.22328E+01    35.300     0.000    55.608    35.558   109.378     3.814     2.976    36.988    48.527     3.023     0.056     0.007     0.000     0.000     0.005     6.331     0.009     0.005 .00000E+00 0.000E+00 0.000E+00 0.000E+00 0.000E+00 0.000E+00
BIGSUB    3        0    5.18344E+01    35.300     0.000    55.671    37.543   106.965     3.103     2.372    31.013    43.167     4.329     0.012     0.001     0.000     0.000     0.001     7.971     0.012     0.004 .00000E+00 0.000E+00 0.000E+00 0.000E+00 0.000E+00 0.000E+00
BIGSUB    1        0    6.17227E+01    10.100     0.000    61.684    24.479    94.480     0.000     0.008     4.104     6.240     0.000     0.000     0.000     0.000     0.000     0.000     0.622     0.000     0.000 .00000E+00 0.000E+00 0.000E+00 0.000E+00 0.000E+00 0.000E+00
BIGSUB    2        0    6.22328E+01    10.100     0.000    61.952    24.739    94.572     0.000     0.012     7.519     9.818     0.000     0.000     0.000     0.000     0.000     0.000     0.480     0.000     0.000 .00000E+00 0.000E+00 0.000E+00 0.000E+00 0.000E+00 0.000E+00
BIGSUB    3        0    6.18344E+01    10.100     0.000    62.029    26.354    90.494     0.000     0.003     4.113     6.208     0.000     0.000     0.000     0.000     0.000     0.000     0.624     0.000     0.000 .00000E+00 0.000E+00 0.000E+00 0.000E+00 0.000E+00 0.000E+00
BIGSUB    1        0    7.17227E+01    16.800     0.000    54.340    21.345    89.057     0.000     0.000     0.688     2.756     0.000     0.000     0.000     0.000     0.000     0.000     0.852     0.001     0.000 .00000E+00 0.000E+00 0.000E+00 0.000E+00 0.000E+00 0.000E+00
BIGSUB    2        0    7.22328E+01    16.800     0.000    54.569    21.458    89.237     0.000     0.000     1.588     3.705     0.000     0.000     0.000     0.000     0.000     0.000     0.656     0.001     0.000 .00000E+00 0.000E+00 0.000E+00 0.000E+00 0.000E+00 0.000E+00
BIGSUB    3        0    7.18344E+01    16.800     0.000    54.635    22.627    83.790     0.000     0.000     0.424     2.460     0.000     0.000     0.000     0.000     0.000     0.000     0.851     0.001     0.000 .00000E+00 0.000E+00 0.000E+00 0.000E+00 0.000E+00 0.000E+00
BIGSUB    1        0    8.17227E+01    23.100     0.000    56.757    21.331    85.508     0.000     3.618     0.068     6.319    15.084     0.008     0.001     0.004     0.000     0.001     1.716     0.001     0.000 .00000E+00 0.000E+00 0.000E+00 0.000E+00 0.000E+00 0.000E+00
BIGSUB    2        0    8.22328E+01    23.100     0.000    56.950    20.722    86.674     0.000     3.640     0.159     6.214     9.794     0.017     0.002     0.004     0.000     0.002     1.313     0.001     0.000 .00000E+00 0.000E+00 0.000E+00 0.000E+00 0.000E+00 0.000E+00
BIGSUB    3        0    8.18344E+01    23.100     0.000    57.007    22.171    79.571     0.000     3.408     0.026     6.084    13.292     0.003     0.000     0.004     0.000     0.000     1.756     0.001     0.000 .00000E+00 0.000E+00 0.000E+00 0.000E+00 0.000E+00 0.000E+00
BIGSUB    1        0    9.17227E+01    25.000     0.000    38.333    18.603    88.677     0.000     0.849     0.004     3.851     2.188     0.001     0.000     0.001     0.000     0.000     2.334     0.001     0.000 .00000E+00 0.000E+00 0.000E+00 0.000E+00 0.000E+00 0.000E+00
BIGSUB    2        0    9.22328E+01    25.000     0.000    38.433    18.751    90.226     0.000     0.876     0.011     3.471     1.462     0.003     0.000     0.001     0.000     0.000     1.787     0.001     0.000 .00000E+00 0.000E+00 0.000E+00 0.000E+00 0.000E+00 0.000E+00
BIGSUB    3        0    9.18344E+01    25.000     0.000    38.462    19.253    82.192     0.000     0.726     0.001     3.730     1.730     0.001     0.000     0.001     0.000     0.000     2.355     0.001     0.000 .00000E+00 0.000E+00 0.000E+00 0.000E+00 0.000E+00 0.000E+00
BIGSUB    1        0   10.17227E+01    37.100     0.000    28.833    18.814    99.485     0.000     3.112     0.000     7.792    17.791     0.007     0.001     0.001     0.000     0.001     4.171     0.001     0.000 .00000E+00 0.000E+00 0.000E+00 0.000E+00 0.000E+00 0.000E+00
BIGSUB    2        0   10.22328E+01    37.100     0.000    28.915    19.338   101.464     0.000     3.173     0.000     6.978    11.717     0.014     0.002     0.001     0.000     0.001     3.193     0.001     0.000 .00000E+00 0.000E+00 0.000E+00 0.000E+00 0.000E+00 0.000E+00
BIGSUB    3        0   10.18344E+01    37.100     0.000    28.939    19.350    92.674     0.000     2.863     0.000     7.572    15.381     0.002     0.000     0.001     0.000     0.000     4.213     0.001     0.000 .00000E+00 0.000E+00 0.000E+00 0.000E+00 0.000E+00 0.000E+00
BIGSUB    1        0   11.17227E+01    61.500     0.000    21.577    19.657   115.470     0.829    15.167     0.100    25.716    36.935     0.037     0.004     0.002     0.000     0.003    10.083     0.020     0.000 .00000E+00 0.000E+00 0.000E+00 0.000E+00 0.000E+00 0.000E+00
BIGSUB    2        0   11.22328E+01    61.500     0.000    21.620    19.820   117.898     1.790    15.415     0.239    24.316    24.239     0.074     0.009     0.002     0.000     0.007     8.220     0.019     0.000 .00000E+00 0.000E+00 0.000E+00 0.000E+00 0.000E+00 0.000E+00
BIGSUB    3        0   11.18344E+01    61.500     0.000    21.632    20.022   109.304     0.248    14.381     0.033    25.209    32.739     0.014     0.002     0.002     0.000     0.001    10.439     0.021     0.000 .00000E+00 0.000E+00 0.000E+00 0.000E+00 0.000E+00 0.000E+00
BIGSUB    1        0   12.17227E+01   148.700     0.000    17.295    17.021   119.980    35.104    54.354     0.582    89.320   181.907     0.136     0.017     0.004     0.000     0.013    34.064     0.156     0.000 .00000E+00 0.000E+00 0.000E+00 0.000E+00 0.000E+00 0.000E+00
BIGSUB    2        0   12.22328E+01   148.700     0.000    17.288    17.003   119.999    44.209    54.296     1.216    83.871   117.355     0.277     0.034     0.004     0.001     0.026    27.961     0.129     0.000 .00000E+00 0.000E+00 0.000E+00 0.000E+00 0.000E+00 0.000E+00
BIGSUB    3        0   12.18344E+01   148.700     0.000    17.287    17.054   119.980    30.078    54.057     0.258    87.899   170.205     0.053     0.007     0.004     0.000     0.005    33.289     0.146     0.000 .00000E+00 0.000E+00 0.000E+00 0.000E+00 0.000E+00 0.000E+00
BIGSUB    1        0 1986.17227E+01  1266.300     0.000   434.219   275.267   119.980   250.868   463.397   199.634   952.602  1514.791    30.565     3.742     0.018     0.005     2.996   276.965     0.739     0.056 .00000E+00 0.000E+00 0.000E+00 0.000E+00 0.000E+00 0.000E+00
BIGSUB    2        0 1986.22328E+01  1266.300     0.000   435.652   276.326   119.999   302.680   463.936   241.159   943.920   977.367    30.477     3.734     0.017     0.008     2.980   223.637     0.580     0.071 .00000E+00 0.000E+00 0.000E+00 0.000E+00 0.000E+00 0.000E+00
BIGSUB    3        0 1986.18344E+01  1266.300     0.000   436.068   283.794   119.980   242.284   461.481   189.060   941.606  1422.942    30.748     3.770     0.017     0.004     3.018   278.879     0.742     0.053 .00000E+00 0.000E+00 0.000E+00 0.000E+00 0.000E+00 0.000E+00
BIGSUB    1        0    1.17227E+01   265.300     0.000    16.964    16.964   120.008    66.210   116.419    13.128   194.990   403.931    29.225     3.575     0.003     0.003     2.870    64.841     0.229     0.004 .00000E+00 0.000E+00 0.000E+00 0.000E+00 0.000E+00 0.000E+00
BIGSUB    2        0    1.22328E+01   265.300     0.000    16.988    16.988   120.015    78.804   116.118    16.503   185.689   260.428    27.750     3.395     0.003     0.003     2.718    52.320     0.178     0.006 .00000E+00 0.000E+00 0.000E+00 0.000E+00 0.000E+00 0.000E+00
BIGSUB    3        0    1.18344E+01   265.300     0.000    16.995    16.995   120.003    65.461   116.630     9.654   192.393   381.055    30.079     3.680     0.003     0.002     2.953    65.560     0.235     0.003 .00000E+00 0.000E+00 0.000E+00 0.000E+00 0.000E+00 0.000E+00
BIGSUB    1        0    2.17227E+01   224.900     0.000    18.763    18.763   120.006    47.050   112.325    36.442   197.463   276.084     0.387     0.049     0.001     0.001     0.041    47.693     0.119     0.013 .00000E+00 0.000E+00 0.000E+00 0.000E+00 0.000E+00 0.000E+00
BIGSUB    2        0    2.22328E+01   224.900     0.000    18.792    18.792   120.011    56.119   112.620    43.722   196.056   177.941     0.981     0.121     0.001     0.001     0.101    38.495     0.091     0.017 .00000E+00 0.000E+00 0.000E+00 0.000E+00 0.000E+00 0.000E+00
BIGSUB    3        0    2.18344E+01   224.900     0.000    18.801    18.801   120.002    46.493   112.095    34.297   195.557   260.567     0.182     0.025     0.001     0.001     0.023    48.218     0.122     0.012 .00000E+00 0.000E+00 0.000E+00 0.000E+00 0.000E+00 0.000E+00
BIGSUB    1        0    3.17227E+01    92.200     0.000    43.733    36.873   110.748    19.121    24.174    43.091    93.555    81.491     0.075     0.010     0.001     0.000     0.008    24.855     0.052     0.011 .00000E+00 0.000E+00 0.000E+00 0.000E+00 0.000E+00 0.000E+00
BIGSUB    2        0    3.22328E+01    92.200     0.000    43.812    36.999   110.862    23.045    24.320    51.618    97.723    52.557     0.151     0.019     0.001     0.000     0.015    20.052     0.040     0.014 .00000E+00 0.000E+00 0.000E+00 0.000E+00 0.000E+00 0.000E+00
BIGSUB    3        0    3.18344E+01    92.200     0.000    43.835    38.017   109.803    18.750    24.045    41.844    92.333    76.841     0.030     0.005     0.001     0.000     0.004    25.066     0.052     0.011 .00000E+00 0.000E+00 0.000E+00 0.000E+00 0.000E+00 0.000E+00
BIGSUB    1        0    4.17227E+01    34.800     0.000    39.936    28.004   106.114     0.000     8.725    26.410    39.230    56.326     0.023     0.003     0.001     0.000     0.002     2.725     0.000     0.003 .00000E+00 0.000E+00 0.000E+00 0.000E+00 0.000E+00 0.000E+00
BIGSUB    2        0    4.22328E+01    34.800     0.000    40.064    28.420   106.422     0.000     8.731    30.096    42.584    36.345     0.048     0.006     0.001     0.000     0.005     2.105     0.000     0.004 .00000E+00 0.000E+00 0.000E+00 0.000E+00 0.000E+00 0.000E+00
BIGSUB    3        0    4.18344E+01    34.800     0.000    40.102    29.444   103.760     0.000     8.679    25.288    38.030    52.822     0.009     0.001     0.001     0.000     0.001     2.740     0.000     0.003 .00000E+00 0.000E+00 0.000E+00 0.000E+00 0.000E+00 0.000E+00
BIGSUB    1        0    5.17227E+01    14.400     0.000    63.653    25.414    94.070     0.000     0.111     3.620     5.830     0.498     0.000     0.000     0.000     0.000     0.000     0.919     0.000     0.000 .00000E+00 0.000E+00 0.000E+00 0.000E+00 0.000E+00 0.000E+00
BIGSUB    2        0    5.22328E+01    14.400     0.000    63.899    25.713    94.288     0.000     0.113     5.954     8.197     0.324     0.000     0.000     0.000     0.000     0.000     0.709     0.000     0.000 .00000E+00 0.000E+00 0.000E+00 0.000E+00 0.000E+00 0.000E+00
BIGSUB    3        0    5.18344E+01    14.400     0.000    63.971    27.244    89.897     0.000     0.097     3.072     5.232     0.402     0.000     0.000     0.000     0.000     0.000     0.922     0.000     0.000 .00000E+00 0.000E+00 0.000E+00 0.000E+00 0.000E+00 0.000E+00
BIGSUB    1        0    6.17227E+01     8.300     0.000    56.917    16.016    86.258     0.000     0.000     0.441     1.421     0.000     0.000     0.000     0.000     0.000     0.000     0.089     0.000     0.000 .00000E+00 0.000E+00 0.000E+00 0.000E+00 0.000E+00 0.000E+00
BIGSUB    2        0    6.22328E+01     8.300     0.000    57.133    16.122    86.392     0.000     0.000     1.060     2.201     0.000     0.000     0.000     0.000     0.000     0.000     0.068     0.000     0.000 .00000E+00 0.000E+00 0.000E+00 0.000E+00 0.000E+00 0.000E+00
BIGSUB    3        0    6.18344E+01     8.300     0.000    57.195    17.290    80.812     0.000     0.000     0.239     1.189     0.000     0.000     0.000     0.000     0.000     0.000     0.088     0.000     0.000 .00000E+00 0.000E+00 0.000E+00 0.000E+00 0.000E+00 0.000E+00
BIGSUB    1        0    7.17227E+01    10.300     0.000    54.493    17.282    78.911     0.000     0.000     0.027     1.098     0.000     0.000     0.000     0.000     0.000     0.000     0.373     0.001     0.000 .00000E+00 0.000E+00 0.000E+00 0.000E+00 0.000E+00 0.000E+00
BIGSUB    2        0    7.22328E+01    10.300     0.000    54.697    16.485    79.934     0.000     0.000     0.066     1.185     0.000     0.000     0.000     0.000     0.000     0.000     0.279     0.000     0.000 .00000E+00 0.000E+00 0.000E+00 0.000E+00 0.000E+00 0.000E+00
BIGSUB    3        0    7.18344E+01    10.300     0.000    54.756    17.992    72.759     0.000     0.000     0.015     1.058     0.000     0.000     0.000     0.000     0.000     0.000     0.368     0.001     0.000 .00000E+00 0.000E+00 0.000E+00 0.000E+00 0.000E+00 0.000E+00
BIGSUB    1        0    8.17227E+01    14.900     0.000    64.332    17.686    75.021     0.000     0.000     0.000     1.583     0.000     0.000     0.000     0.000     0.000     0.000     1.064     0.002     0.000 .00000E+00 0.000E+00 0.000E+00 0.000E+00 0.000E+00 0.000E+00
BIGSUB    2        0    8.22328E+01    14.900     0.000    64.554    17.002    76.987     0.000     0.001     0.000     1.440     0.001     0.000     0.000     0.000     0.000     0.000     0.815     0.002     0.000 .00000E+00 0.000E+00 0.000E+00 0.000E+00 0.000E+00 0.000E+00
BIGSUB    3        0    8.18344E+01    14.900     0.000    64.619    18.389    68.169     0.000     0.000     0.000     1.565     0.000     0.000     0.000     0.000     0.000     0.000     1.062     0.002     0.000 .00000E+00 0.000E+00 0.000E+00 0.000E+00 0.000E+00 0.000E+00
BIGSUB    1        0    9.17227E+01    23.500     0.000    49.175    18.367    77.647     0.000     0.233     0.000     2.802     1.038     0.000     0.000     0.000     0.000     0.000     2.196     0.002     0.000 .00000E+00 0.000E+00 0.000E+00 0.000E+00 0.000E+00 0.000E+00
BIGSUB    2        0    9.22328E+01    23.500     0.000    49.322    17.942    80.542     0.000     0.257     0.000     2.391     0.759     0.001     0.000     0.000     0.000     0.000     1.685     0.002     0.000 .00000E+00 0.000E+00 0.000E+00 0.000E+00 0.000E+00 0.000E+00
BIGSUB    3        0    9.18344E+01    23.500     0.000    49.364    18.793    70.414     0.000     0.175     0.000     2.743     0.709     0.000     0.000     0.000     0.000     0.000     2.207     0.002     0.000 .00000E+00 0.000E+00 0.000E+00 0.000E+00 0.000E+00 0.000E+00
BIGSUB    1        0   10.17227E+01    34.400     0.000    28.013    17.487    87.146     0.000     3.332     0.000     7.767     8.406     0.006     0.001     0.001     0.000     0.001     4.150     0.001     0.000 .00000E+00 0.000E+00 0.000E+00 0.000E+00 0.000E+00 0.000E+00
BIGSUB    2        0   10.22328E+01    34.400     0.000    28.097    17.964    90.372     0.000     3.488     0.000     7.002     5.723     0.013     0.002     0.001     0.000     0.001     3.170     0.001     0.000 .00000E+00 0.000E+00 0.000E+00 0.000E+00 0.000E+00 0.000E+00
BIGSUB    3        0   10.18344E+01    34.400     0.000    28.121    17.925    79.763     0.000     2.974     0.000     7.472     6.996     0.002     0.000     0.001     0.000     0.000     4.221     0.001     0.000 .00000E+00 0.000E+00 0.000E+00 0.000E+00 0.000E+00 0.000E+00
BIGSUB    1        0   11.17227E+01    82.700     0.000    20.089    18.569   119.989     2.456    11.116     0.016    27.914    35.052     0.028     0.003     0.002     0.000     0.003    16.578     0.044     0.000 .00000E+00 0.000E+00 0.000E+00 0.000E+00 0.000E+00 0.000E+00
BIGSUB    2        0   11.22328E+01    82.700     0.000    20.098    18.860   119.996     7.675    11.596     0.038    25.748    23.604     0.058     0.007     0.002     0.000     0.006    13.867     0.046     0.000 .00000E+00 0.000E+00 0.000E+00 0.000E+00 0.000E+00 0.000E+00
BIGSUB    3        0   11.18344E+01    82.700     0.000    20.101    18.759   113.644     1.681    10.183     0.005    27.465    30.390     0.011     0.002     0.001     0.000     0.001    17.080     0.046     0.000 .00000E+00 0.000E+00 0.000E+00 0.000E+00 0.000E+00 0.000E+00
BIGSUB    1        0   12.17227E+01   113.700     0.000    14.491    14.356   119.920    36.878    25.556     1.141    64.144    70.702     0.058     0.007     0.001     0.000     0.005    37.178     0.189     0.000 .00000E+00 0.000E+00 0.000E+00 0.000E+00 0.000E+00 0.000E+00
BIGSUB    2        0   12.22328E+01   113.700     0.000    14.485    14.315   119.944    44.027    25.558     2.376    58.454    45.962     0.116     0.015     0.001     0.000     0.011    30.169     0.151     0.001 .00000E+00 0.000E+00 0.000E+00 0.000E+00 0.000E+00 0.000E+00
BIGSUB    3        0   12.18344E+01   113.700     0.000    14.483    14.356   119.921    31.627    25.376     0.623    62.468    66.601     0.023     0.003     0.001     0.000     0.002    36.235     0.176     0.000 .00000E+00 0.000E+00 0.000E+00 0.000E+00 0.000E+00 0.000E+00
BIGSUB    1        0 1987.17227E+01   919.400     0.000   470.559   245.780   119.920   171.715   301.992   124.317   637.795   933.528    29.802     3.649     0.010     0.004     2.929   202.662     0.639     0.032 .00000E+00 0.000E+00 0.000E+00 0.000E+00 0.000E+00 0.000E+00
BIGSUB    2        0 1987.22328E+01   919.400     0.000   471.941   245.601   119.944   209.670   302.803   151.432   628.670   603.644    29.118     3.565     0.010     0.005     2.857   163.733     0.511     0.042 .00000E+00 0.000E+00 0.000E+00 0.000E+00 0.000E+00 0.000E+00
BIGSUB    3        0 1987.18344E+01   919.400     0.000   472.343   254.004   119.921   164.012   300.255   115.037   627.504   876.384    30.336     3.716     0.010     0.003     2.984   203.768     0.638     0.030 .00000E+00 0.000E+00 0.000E+00 0.000E+00 0.000E+00 0.000E+00
BIGSUB    1        0    1.17227E+01   186.600     0.000    16.678    16.677   120.002    54.229    61.670     8.092   122.218   170.659    27.106     3.316     0.002     0.002     2.647    51.928     0.210     0.003 .00000E+00 0.000E+00 0.000E+00 0.000E+00 0.000E+00 0.000E+00
BIGSUB    2        0    1.22328E+01   186.600     0.000    16.705    16.704   120.005    64.606    61.634    11.680   115.897   110.747    23.710     2.900     0.002     0.002     2.310    41.909     0.163     0.004 .00000E+00 0.000E+00 0.000E+00 0.000E+00 0.000E+00 0.000E+00
BIGSUB    3        0    1.18344E+01   186.600     0.000    16.712    16.711   120.001    53.603    61.728     4.720   119.419   161.343    27.546     3.370     0.002     0.002     2.689    52.502     0.216     0.002 .00000E+00 0.000E+00 0.000E+00 0.000E+00 0.000E+00 0.000E+00
BIGSUB    1        0    2.17227E+01   190.600     0.000    25.867    25.533   120.000    34.756    94.087    29.972   163.720   373.837     2.124     0.260     0.001     0.001     0.227    38.765     0.114     0.011 .00000E+00 0.000E+00 0.000E+00 0.000E+00 0.000E+00 0.000E+00
BIGSUB    2        0    2.22328E+01   190.600     0.000    25.908    25.578   120.001    41.700    94.129    35.933   162.463   242.434     4.461     0.546     0.001     0.002     0.455    31.296     0.088     0.014 .00000E+00 0.000E+00 0.000E+00 0.000E+00 0.000E+00 0.000E+00
BIGSUB    3        0    2.18344E+01   190.600     0.000    25.919    25.668   120.000    34.265    94.023    27.225   161.246   353.022     2.449     0.300     0.001     0.001     0.261    39.159     0.117     0.010 .00000E+00 0.000E+00 0.000E+00 0.000E+00 0.000E+00 0.000E+00
BIGSUB    1        0    3.17227E+01   149.200     0.000    37.359    36.128   120.001    29.083    51.358    34.414   117.608   161.860     0.130     0.016     0.002     0.000     0.016    30.629     0.079     0.009 .00000E+00 0.000E+00 0.000E+00 0.000E+00 0.000E+00 0.000E+00
BIGSUB    2        0    3.22328E+01   149.200     0.000    37.482    36.249   120.002    35.169    51.212    41.410   118.860   104.746     0.276     0.034     0.002     0.001     0.031    24.764     0.061     0.011 .00000E+00 0.000E+00 0.000E+00 0.000E+00 0.000E+00 0.000E+00
BIGSUB    3        0    3.18344E+01   149.200     0.000    37.518    36.611   120.001    28.387    51.488    33.153   116.619   152.815     0.051     0.007     0.002     0.000     0.009    30.828     0.080     0.008 .00000E+00 0.000E+00 0.000E+00 0.000E+00 0.000E+00 0.000E+00
BIGSUB    1        0    4.17227E+01    87.100     0.000    39.897    37.747   118.367    13.975    19.278    28.236    68.755    54.642     0.058     0.007     0.001     0.000     0.005    19.998     0.046     0.005 .00000E+00 0.000E+00 0.000E+00 0.000E+00 0.000E+00 0.000E+00
BIGSUB    2        0    4.22328E+01    87.100     0.000    40.055    37.890   118.363    17.267    19.432    34.313    71.435    35.327     0.116     0.014     0.001     0.000     0.011    16.177     0.036     0.007 .00000E+00 0.000E+00 0.000E+00 0.000E+00 0.000E+00 0.000E+00
BIGSUB    3        0    4.18344E+01    87.100     0.000    40.101    38.595   118.255    13.266    19.125    27.167    67.495    51.578     0.023     0.003     0.001     0.000     0.002    20.009     0.046     0.005 .00000E+00 0.000E+00 0.000E+00 0.000E+00 0.000E+00 0.000E+00
BIGSUB    1        0    5.17227E+01    26.400     0.000    63.496    36.319   104.998     0.000     0.954    10.859    15.578     3.555     0.002     0.000     0.001     0.000     0.000     2.579     0.001     0.001 .00000E+00 0.000E+00 0.000E+00 0.000E+00 0.000E+00 0.000E+00
BIGSUB    2        0    5.22328E+01    26.400     0.000    63.745    36.576   105.304     0.000     0.956    12.835    17.237     2.300     0.004     0.000     0.001     0.000     0.000     2.003     0.001     0.002 .00000E+00 0.000E+00 0.000E+00 0.000E+00 0.000E+00 0.000E+00
BIGSUB    3        0    5.18344E+01    26.400     0.000    63.818    38.928   102.306     0.000     0.912     9.223    13.863     3.207     0.001     0.000     0.001     0.000     0.000     2.588     0.001     0.001 .00000E+00 0.000E+00 0.000E+00 0.000E+00 0.000E+00 0.000E+00
BIGSUB    1        0    6.17227E+01     6.400     0.000    58.195    18.384    92.896     0.000     0.001     0.889     2.059     0.000     0.000     0.000     0.000     0.000     0.000     0.231     0.000     0.000 .00000E+00 0.000E+00 0.000E+00 0.000E+00 0.000E+00 0.000E+00
BIGSUB    2        0    6.22328E+01     6.400     0.000    58.424    18.529    93.085     0.000     0.002     2.096     3.418     0.000     0.000     0.000     0.000     0.000     0.000     0.178     0.000     0.000 .00000E+00 0.000E+00 0.000E+00 0.000E+00 0.000E+00 0.000E+00
BIGSUB    3        0    6.18344E+01     6.400     0.000    58.491    19.995    88.593     0.000     0.001     0.587     1.721     0.000     0.000     0.000     0.000     0.000     0.000     0.232     0.000     0.000 .00000E+00 0.000E+00 0.000E+00 0.000E+00 0.000E+00 0.000E+00
BIGSUB    1        0    7.17227E+01     5.900     0.000    68.009    17.888    80.785     0.000     0.000     0.214     1.084     0.000     0.000     0.000     0.000     0.000     0.000     0.121     0.000     0.000 .00000E+00 0.000E+00 0.000E+00 0.000E+00 0.000E+00 0.000E+00
BIGSUB    2        0    7.22328E+01     5.900     0.000    68.225    17.013    81.878     0.000     0.000     0.510     1.514     0.000     0.000     0.000     0.000     0.000     0.000     0.091     0.000     0.000 .00000E+00 0.000E+00 0.000E+00 0.000E+00 0.000E+00 0.000E+00
BIGSUB    3        0    7.18344E+01     5.900     0.000    68.288    19.019    75.352     0.000     0.000     0.086     0.926     0.000     0.000     0.000     0.000     0.000     0.000     0.120     0.000     0.000 .00000E+00 0.000E+00 0.000E+00 0.000E+00 0.000E+00 0.000E+00
BIGSUB    1        0    8.17227E+01     9.600     0.000    55.020    12.766    77.002     0.000     0.000     0.012     1.149     0.000     0.000     0.000     0.000     0.000     0.000     0.574     0.001     0.000 .00000E+00 0.000E+00 0.000E+00 0.000E+00 0.000E+00 0.000E+00
[...]
BIGSUB    1        0    3.17227E+01   232.700     0.000    30.414    30.315   120.006    59.423    82.396    51.410   194.127   223.637     0.242     0.032     0.001     0.001     0.023    58.806     0.124     0.019 .00000E+00 0.000E+00 0.000E+00 0.000E+00 0.000E+00 0.000E+00
BIGSUB    2        0    3.22328E+01   232.700     0.000    30.531    30.432   120.011    70.969    82.298    61.574   193.169   144.171     0.486     0.060     0.001     0.001     0.046    47.457     0.092     0.023 .00000E+00 0.000E+00 0.000E+00 0.000E+00 0.000E+00 0.000E+00
BIGSUB    3        0    3.18344E+01   232.700     0.000    30.565    30.537   120.002    58.605    82.454    49.858   193.164   211.005     0.096     0.012     0.001     0.000     0.009    59.397     0.126     0.019 .00000E+00 0.000E+00 0.000E+00 0.000E+00 0.000E+00 0.000E+00
BIGSUB    1        0    4.17227E+01    60.000     0.000    42.890    38.532   116.212     6.550     8.153    46.866    70.800    19.062     0.025     0.003     0.001     0.000     0.002    14.040     0.019     0.012 .00000E+00 0.000E+00 0.000E+00 0.000E+00 0.000E+00 0.000E+00
BIGSUB    2        0    4.22328E+01    60.000     0.000    43.051    38.700   116.519     8.193     8.267    56.112    77.778    12.287     0.047     0.006     0.001     0.000     0.004    11.297     0.015     0.014 .00000E+00 0.000E+00 0.000E+00 0.000E+00 0.000E+00 0.000E+00
BIGSUB    3        0    4.18344E+01    60.000     0.000    43.098    39.584   115.633     6.112     8.032    45.904    69.670    17.960     0.011     0.001     0.001     0.000     0.001    14.047     0.019     0.012 .00000E+00 0.000E+00 0.000E+00 0.000E+00 0.000E+00 0.000E+00
BIGSUB    1        0    5.17227E+01    16.700     0.000    43.164    25.391   106.058     0.000     0.290    24.842    27.963     1.097     0.001     0.000     0.000     0.000     0.000     1.169     0.000     0.003 .00000E+00 0.000E+00 0.000E+00 0.000E+00 0.000E+00 0.000E+00
BIGSUB    2        0    5.22328E+01    16.700     0.000    43.363    25.671   106.351     0.000     0.291    28.816    32.015     0.710     0.001     0.000     0.000     0.000     0.000     0.902     0.000     0.003 .00000E+00 0.000E+00 0.000E+00 0.000E+00 0.000E+00 0.000E+00
BIGSUB    3        0    5.18344E+01    16.700     0.000    43.421    27.118   103.761     0.000     0.276    23.708    26.769     0.982     0.000     0.000     0.000     0.000     0.000     1.172     0.000     0.003 .00000E+00 0.000E+00 0.000E+00 0.000E+00 0.000E+00 0.000E+00
BIGSUB    1        0    6.17227E+01     9.300     0.000    55.012    21.003    94.125     0.000     0.000     2.287     3.946     0.000     0.000     0.000     0.000     0.000     0.000     0.349     0.000     0.000 .00000E+00 0.000E+00 0.000E+00 0.000E+00 0.000E+00 0.000E+00
BIGSUB    2        0    6.22328E+01     9.300     0.000    55.227    21.185    94.288     0.000     0.000     3.996     5.845     0.000     0.000     0.000     0.000     0.000     0.000     0.270     0.000     0.000 .00000E+00 0.000E+00 0.000E+00 0.000E+00 0.000E+00 0.000E+00
BIGSUB    3        0    6.18344E+01     9.300     0.000    55.290    22.620    90.210     0.000     0.000     1.856     3.477     0.000     0.000     0.000     0.000     0.000     0.000     0.350     0.000     0.000 .00000E+00 0.000E+00 0.000E+00 0.000E+00 0.000E+00 0.000E+00
BIGSUB    1        0    7.17227E+01     4.600     0.100    70.943    14.032    84.686     0.000     0.000     0.409     1.457     0.000     0.000     0.000     0.000     0.000     0.000     0.003     0.000     0.000 .00000E+00 0.000E+00 0.000E+00 0.000E+00 0.000E+00 0.000E+00
BIGSUB    2        0    7.22328E+01     4.600     0.100    71.157    14.107    84.775     0.000     0.000     0.971     2.234     0.000     0.000     0.000     0.000     0.000     0.000     0.002     0.000     0.000 .00000E+00 0.000E+00 0.000E+00 0.000E+00 0.000E+00 0.000E+00
BIGSUB    3        0    7.18344E+01     4.600     0.100    71.220    15.624    79.179     0.000     0.000     0.194     1.211     0.000     0.000     0.000     0.000     0.000     0.000     0.003     0.000     0.000 .00000E+00 0.000E+00 0.000E+00 0.000E+00 0.000E+00 0.000E+00
BIGSUB    1        0    8.17227E+01    10.900     0.000    50.694    17.009    78.327     0.000     0.000     0.033     1.072     0.000     0.000     0.000     0.000     0.000     0.000     0.254     0.001     0.000 .00000E+00 0.000E+00 0.000E+00 0.000E+00 0.000E+00 0.000E+00
BIGSUB    2        0    8.22328E+01    10.900     0.000    50.881    16.403    79.080     0.000     0.000     0.081     1.222     0.000     0.000     0.000     0.000     0.000     0.000     0.196     0.000     0.000 .00000E+00 0.000E+00 0.000E+00 0.000E+00 0.000E+00 0.000E+00
BIGSUB    3        0    8.18344E+01    10.900     0.000    50.936    17.715    72.114     0.000     0.000     0.012     1.027     0.000     0.000     0.000     0.000     0.000     0.000     0.254     0.001     0.000 .00000E+00 0.000E+00 0.000E+00 0.000E+00 0.000E+00 0.000E+00
BIGSUB    1        0    9.17227E+01    19.000     0.000    39.714    14.907    80.481     0.000     0.058     0.000     2.286     0.210     0.000     0.000     0.000     0.000     0.000     1.661     0.003     0.000 .00000E+00 0.000E+00 0.000E+00 0.000E+00 0.000E+00 0.000E+00
BIGSUB    2        0    9.22328E+01    19.000     0.000    39.816    14.307    82.270     0.000     0.064     0.000     2.017     0.154     0.000     0.000     0.000     0.000     0.000     1.270     0.002     0.000 .00000E+00 0.000E+00 0.000E+00 0.000E+00 0.000E+00 0.000E+00
BIGSUB    3        0    9.18344E+01    19.000     0.000    39.845    15.292    73.904     0.000     0.037     0.000     2.249     0.117     0.000     0.000     0.000     0.000     0.000     1.662     0.003     0.000 .00000E+00 0.000E+00 0.000E+00 0.000E+00 0.000E+00 0.000E+00
BIGSUB    1        0   10.17227E+01    71.100     0.000    28.208    23.370   110.957     0.294     4.961     0.000    16.990    15.431     0.010     0.001     0.001     0.000     0.001    11.595     0.011     0.000 .00000E+00 0.000E+00 0.000E+00 0.000E+00 0.000E+00 0.000E+00
BIGSUB    2        0   10.22328E+01    71.100     0.000    28.260    23.851   114.260     0.587     5.173     0.000    14.856    10.364     0.022     0.003     0.001     0.000     0.002     9.160     0.010     0.000 .00000E+00 0.000E+00 0.000E+00 0.000E+00 0.000E+00 0.000E+00
BIGSUB    3        0   10.18344E+01    71.100     0.000    28.275    23.759   104.559     0.084     4.440     0.000    16.616    13.108     0.004     0.000     0.001     0.000     0.000    11.755     0.011     0.000 .00000E+00 0.000E+00 0.000E+00 0.000E+00 0.000E+00 0.000E+00
BIGSUB    1        0   11.17227E+01    61.400     0.000    21.149    19.920   119.986     6.066    13.430     0.330    26.753    47.674     0.032     0.004     0.003     0.000     0.003    12.666     0.039     0.000 .00000E+00 0.000E+00 0.000E+00 0.000E+00 0.000E+00 0.000E+00
BIGSUB    2        0   11.22328E+01    61.400     0.000    21.163    19.876   119.995    11.132    13.621     0.778    25.610    31.149     0.064     0.008     0.002     0.000     0.006    10.800     0.039     0.000 .00000E+00 0.000E+00 0.000E+00 0.000E+00 0.000E+00 0.000E+00
BIGSUB    3        0   11.18344E+01    61.400     0.000    21.166    20.179   118.007     2.500    12.839     0.131    25.568    42.874     0.012     0.002     0.002     0.000     0.001    12.289     0.032     0.000 .00000E+00 0.000E+00 0.000E+00 0.000E+00 0.000E+00 0.000E+00
BIGSUB    1        0   12.17227E+01    38.400     0.000    28.431    21.250   117.513     5.774     5.055     0.738    15.613    21.114     0.010     0.001     0.002     0.000     0.001     9.522     0.035     0.000 .00000E+00 0.000E+00 0.000E+00 0.000E+00 0.000E+00 0.000E+00
BIGSUB    2        0   12.22328E+01    38.400     0.000    28.398    21.124   117.559     7.466     5.062     1.466    14.701    13.627     0.021     0.003     0.002     0.000     0.002     7.778     0.029     0.000 .00000E+00 0.000E+00 0.000E+00 0.000E+00 0.000E+00 0.000E+00
BIGSUB    3        0   12.18344E+01    38.400     0.000    28.389    22.296   117.303     3.535     5.014     0.329    14.450    19.790     0.004     0.000     0.002     0.000     0.000     8.851     0.027     0.000 .00000E+00 0.000E+00 0.000E+00 0.000E+00 0.000E+00 0.000E+00
BIGSUB    1        0 1989.17227E+01  1055.600     0.100   448.108   263.218   117.513   200.698   364.102   171.181   778.520  1230.873    29.669     3.635     0.012     0.004     2.924   232.115     0.648     0.052 .00000E+00 0.000E+00 0.000E+00 0.000E+00 0.000E+00 0.000E+00
BIGSUB    2        0 1989.22328E+01  1055.600     0.100   449.395   263.203   117.559   244.365   364.564   208.507   774.230   794.575    29.251     3.578     0.011     0.006     2.877   187.624     0.505     0.066 .00000E+00 0.000E+00 0.000E+00 0.000E+00 0.000E+00 0.000E+00
BIGSUB    3        0 1989.18344E+01  1055.600     0.100   449.769   272.289   117.303   192.014   362.848   159.986   766.681  1157.186    30.057     3.678     0.011     0.003     2.965   233.178     0.649     0.050 .00000E+00 0.000E+00 0.000E+00 0.000E+00 0.000E+00 0.000E+00
BIGSUB    1        0    1.17227E+01   138.700     0.000    16.347    16.295   120.002    44.092    31.134     1.654    76.022    80.633    20.962     2.563     0.002     0.001     2.042    42.879     0.197     0.000 .00000E+00 0.000E+00 0.000E+00 0.000E+00 0.000E+00 0.000E+00
BIGSUB    2        0    1.22328E+01   138.700     0.000    16.372    16.320   120.005    52.700    31.124     4.175    70.399    52.000    16.806     2.055     0.002     0.001     1.635    34.632     0.154     0.001 .00000E+00 0.000E+00 0.000E+00 0.000E+00 0.000E+00 0.000E+00
BIGSUB    3        0    1.18344E+01   138.700     0.000    16.379    16.345   120.001    43.398    31.142     0.938    75.670    76.047    20.875     2.552     0.002     0.001     2.033    43.293     0.203     0.000 .00000E+00 0.000E+00 0.000E+00 0.000E+00 0.000E+00 0.000E+00
BIGSUB    1        0    2.17227E+01    73.200     0.000    19.244    17.380   120.001    17.534    19.042    12.111    50.867    74.556     4.490     0.549     0.002     0.000     0.453    19.173     0.070     0.003 .00000E+00 0.000E+00 0.000E+00 0.000E+00 0.000E+00 0.000E+00
BIGSUB    2        0    2.22328E+01    73.200     0.000    19.271    17.407   120.002    21.175    18.996    14.323    49.500    48.067     4.855     0.594     0.002     0.000     0.483    15.502     0.055     0.004 .00000E+00 0.000E+00 0.000E+00 0.000E+00 0.000E+00 0.000E+00
BIGSUB    3        0    2.18344E+01    73.200     0.000    19.279    17.833   120.000    16.987    19.078     6.796    45.647    70.291     4.846     0.593     0.002     0.000     0.487    19.286     0.071     0.002 .00000E+00 0.000E+00 0.000E+00 0.000E+00 0.000E+00 0.000E+00
BIGSUB    1        0    3.17227E+01    67.900     0.000    37.862    32.858   116.536    10.661    13.788    18.352    48.660    43.578     1.300     0.159     0.002     0.000     0.133    15.782     0.049     0.003 .00000E+00 0.000E+00 0.000E+00 0.000E+00 0.000E+00 0.000E+00
BIGSUB    2        0    3.22328E+01    67.900     0.000    37.955    32.941   116.680    13.152    13.845    22.774    50.294    28.100     1.771     0.217     0.001     0.000     0.178    12.761     0.039     0.005 .00000E+00 0.000E+00 0.000E+00 0.000E+00 0.000E+00 0.000E+00
BIGSUB    3        0    3.18344E+01    67.900     0.000    37.982    34.145   115.910    10.043    13.717    16.362    46.529    41.056     1.478     0.181     0.002     0.000     0.151    15.766     0.049     0.003 .00000E+00 0.000E+00 0.000E+00 0.000E+00 0.000E+00 0.000E+00
BIGSUB    1        0    4.17227E+01    49.800     0.000    45.497    34.776   108.863     4.542    10.039    10.983    30.194    46.588     0.791     0.097     0.002     0.000     0.083     8.456     0.020     0.001 .00000E+00 0.000E+00 0.000E+00 0.000E+00 0.000E+00 0.000E+00
BIGSUB    2        0    4.22328E+01    49.800     0.000    45.613    34.920   108.846     6.045    10.064    13.659    31.483    30.091     1.217     0.149     0.001     0.000     0.124     6.877     0.017     0.002 .00000E+00 0.000E+00 0.000E+00 0.000E+00 0.000E+00 0.000E+00
BIGSUB    3        0    4.18344E+01    49.800     0.000    45.646    36.392   107.801     3.601     9.982    10.033    28.953    43.726     0.925     0.113     0.002     0.000     0.096     8.271     0.018     0.001 .00000E+00 0.000E+00 0.000E+00 0.000E+00 0.000E+00 0.000E+00
BIGSUB    1        0    5.17227E+01    27.000     0.000    52.012    28.093   103.891     0.000     1.309     1.241     5.683     6.305     0.063     0.008     0.002     0.000     0.007     2.486     0.001     0.000 .00000E+00 0.000E+00 0.000E+00 0.000E+00 0.000E+00 0.000E+00
BIGSUB    2        0    5.22328E+01    27.000     0.000    52.214    28.330   104.218     0.000     1.311     2.678     6.711     4.072     0.113     0.014     0.002     0.000     0.012     1.921     0.001     0.000 .00000E+00 0.000E+00 0.000E+00 0.000E+00 0.000E+00 0.000E+00
BIGSUB    3        0    5.18344E+01    27.000     0.000    52.273    30.005   100.954     0.000     1.256     0.732     5.090     5.687     0.074     0.009     0.002     0.000     0.008     2.501     0.001     0.000 .00000E+00 0.000E+00 0.000E+00 0.000E+00 0.000E+00 0.000E+00
BIGSUB    1        0    6.17227E+01    21.500     0.000    41.392    21.414   101.606     0.000     0.566     0.349     3.189     2.415     0.026     0.003     0.001     0.000     0.003     1.774     0.001     0.000 .00000E+00 0.000E+00 0.000E+00 0.000E+00 0.000E+00 0.000E+00
BIGSUB    2        0    6.22328E+01    21.500     0.000    41.574    21.673   102.083     0.000     0.569     0.809     3.368     1.564     0.047     0.006     0.001     0.000     0.005     1.369     0.001     0.000 .00000E+00 0.000E+00 0.000E+00 0.000E+00 0.000E+00 0.000E+00
BIGSUB    3        0    6.18344E+01    21.500     0.000    41.627    22.611    97.510     0.000     0.517     0.149     2.914     2.082     0.029     0.004     0.001     0.000     0.003     1.785     0.001     0.000 .00000E+00 0.000E+00 0.000E+00 0.000E+00 0.000E+00 0.000E+00
BIGSUB    1        0    7.17227E+01     8.100     0.000    61.213    22.080    87.615     0.000     0.002     0.019     0.547     0.000     0.000     0.000     0.000     0.000     0.000     0.129     0.000     0.000 .00000E+00 0.000E+00 0.000E+00 0.000E+00 0.000E+00 0.000E+00
BIGSUB    2        0    7.22328E+01     8.100     0.000    61.459    21.580    88.596     0.000     0.002     0.045     0.636     0.000     0.000     0.000     0.000     0.000     0.000     0.097     0.000     0.000 .00000E+00 0.000E+00 0.000E+00 0.000E+00 0.000E+00 0.000E+00
BIGSUB    3        0    7.18344E+01     8.100     0.000    61.530    23.186    82.414     0.000     0.001     0.007     0.504     0.000     0.000     0.000     0.000     0.000     0.000     0.129     0.000     0.000 .00000E+00 0.000E+00 0.000E+00 0.000E+00 0.000E+00 0.000E+00
BIGSUB    1        0    8.17227E+01    12.100     0.000    45.403    15.355    83.583     0.000     0.042     0.000     1.030     0.174     0.002     0.000     0.000     0.000     0.000     0.691     0.001     0.000 .00000E+00 0.000E+00 0.000E+00 0.000E+00 0.000E+00 0.000E+00
BIGSUB    2        0    8.22328E+01    12.100     0.000    45.567    15.111    84.976     0.000     0.046     0.000     0.943     0.125     0.003     0.000     0.000     0.000     0.000     0.530     0.001     0.000 .00000E+00 0.000E+00 0.000E+00 0.000E+00 0.000E+00 0.000E+00
BIGSUB    3        0    8.18344E+01    12.100     0.000    45.615    16.091    77.658     0.000     0.028     0.000     0.995     0.101     0.001     0.000     0.000     0.000     0.000     0.693     0.002     0.000 .00000E+00 0.000E+00 0.000E+00 0.000E+00 0.000E+00 0.000E+00
BIGSUB    1        0    9.17227E+01    19.600     0.000    38.381    17.922    83.676     0.000     0.005     0.000     1.783     0.012     0.000     0.000     0.000     0.000     0.000     1.565     0.002     0.000 .00000E+00 0.000E+00 0.000E+00 0.000E+00 0.000E+00 0.000E+00
BIGSUB    2        0    9.22328E+01    19.600     0.000    38.515    18.030    85.334     0.000     0.007     0.000     1.465     0.011     0.000     0.000     0.000     0.000     0.000     1.194     0.001     0.000 .00000E+00 0.000E+00 0.000E+00 0.000E+00 0.000E+00 0.000E+00
BIGSUB    3        0    9.18344E+01    19.600     0.000    38.554    18.568    77.113     0.000     0.002     0.000     1.759     0.005     0.000     0.000     0.000     0.000     0.000     1.559     0.002     0.000 .00000E+00 0.000E+00 0.000E+00 0.000E+00 0.000E+00 0.000E+00
BIGSUB    1        0   10.17227E+01    58.400     0.000    29.687    20.374   108.561     0.100     3.938     0.000    12.698    11.952     0.154     0.019     0.001     0.000     0.016     8.596     0.007     0.000 .00000E+00 0.000E+00 0.000E+00 0.000E+00 0.000E+00 0.000E+00
BIGSUB    2        0   10.22328E+01    58.400     0.000    29.789    20.908   111.134     0.207     4.100     0.000    11.263     8.023     0.297     0.036     0.001     0.000     0.030     6.959     0.009     0.000 .00000E+00 0.000E+00 0.000E+00 0.000E+00 0.000E+00 0.000E+00
BIGSUB    3        0   10.18344E+01    58.400     0.000    29.819    20.895   101.831     0.031     3.448     0.000    12.391     9.847     0.167     0.020     0.001     0.000     0.018     8.791     0.008     0.000 .00000E+00 0.000E+00 0.000E+00 0.000E+00 0.000E+00 0.000E+00
BIGSUB    1        0   11.17227E+01     2.400     0.000     1.243     0.855   109.866     0.000     0.005     0.000     0.478     0.000     0.000     0.000     0.000     0.000     0.000     0.464     0.001     0.000 .00000E+00 0.000E+00 0.000E+00 0.000E+00 0.000E+00 0.000E+00
BIGSUB    2        0   11.22328E+01     2.400     0.000     1.249     0.862   112.487     0.000     0.006     0.000     0.394     0.000     0.000     0.000     0.000     0.000     0.000     0.377     0.001     0.000 .00000E+00 0.000E+00 0.000E+00 0.000E+00 0.000E+00 0.000E+00
BIGSUB    3        0   11.18344E+01     2.400     0.000     1.251     0.890   103.100     0.000     0.002     0.000     0.483     0.000     0.000     0.000     0.000     0.000     0.000     0.473     0.001     0.000 .00000E+00 0.000E+00 0.000E+00 0.000E+00 0.000E+00 0.000E+00
BIGSUB    1        0 1990.17227E+01   478.700     0.000   388.279   227.400   109.866    76.929    79.869    44.709   231.150   266.213    27.787     3.398     0.011     0.002     2.737   101.995     0.349     0.008 .00000E+00 0.000E+00 0.000E+00 0.000E+00 0.000E+00 0.000E+00
BIGSUB    2        0 1990.22328E+01   478.700     0.000   389.578   228.082   112.487    93.280    80.070    58.464   226.455   172.052    25.110     3.070     0.010     0.002     2.467    82.219     0.277     0.011 .00000E+00 0.000E+00 0.000E+00 0.000E+00 0.000E+00 0.000E+00
BIGSUB    3        0 1990.18344E+01   478.700     0.000   389.955   236.961   103.100    74.060    79.173    35.017   220.935   248.842    28.396     3.472     0.011     0.001     2.796   102.546     0.356     0.006 .00000E+00 0.000E+00 0.000E+00 0.000E+00 0.000E+00 0.000E+00
BIGSUB    1        0  9.5.17227E+01  1015.174     0.010   439.956   256.618   109.866   192.205   340.137   142.407   713.626  1112.144    48.251     5.908     0.017     0.006     4.720   221.518     0.985     0.055 .00000E+00 0.000E+00 0.000E+00 0.000E+00 0.000E+00 0.000E+00
BIGSUB    2        0  9.5.22328E+01  1015.174     0.010   441.368   257.139   112.487   233.498   340.643   173.817   705.007   718.383    46.766     5.726     0.016     0.008     4.567   178.931     0.779     0.071 .00000E+00 0.000E+00 0.000E+00 0.000E+00 0.000E+00 0.000E+00
BIGSUB    3        0  9.5.18344E+01  1015.174     0.010   441.778   265.108   103.100   184.585   338.697   132.776   703.458  1044.855    49.197     6.025     0.016     0.004     4.815   222.799     0.989     0.052 .00000E+00 0.000E+00 0.000E+00 0.000E+00 0.000E+00 0.000E+00
