1
    SWAT Nov 14  VER 2023/Rev 692                                                                        0/ 0/   0      0: 0: 0

    General Input/Output section (file.cio):                                        
    5/19/2025 12:00:00 AM ARCGIS-SWAT interface AV                                  
                                                                                    


       RCH      GIS   MON     AREAkm2  FLOW_INcms FLOW_OUTcms     EVAPcms    TLOSScms  SED_INtons SED_OUTtons SEDCONCmg/L   ORGN_INkg  ORGN_OUTkg   ORGP_INkg  ORGP_OUTkg    NO3_INkg   NO3_OUTkg    NH4_INkg   NH4_OUTkg    NO2_INkg   NO2_OUTkg   MINP_INkg  MINP_OUTkg   CHLA_INkg  CHLA_OUTkg   CBOD_INkg  CBOD_OUTkg  DISOX_INkg DISOX_OUTkg SOLPST_INmgSOLPST_OUTmg SORPST_INmgSORPST_OUTmg  REACTPSTmg    VOLPSTmg  SETTLPSTmgRESUSP_PSTmgDIFFUSEPSTmgREACBEDPSTmg   BURYPSTmg   BED_PSTmg BACTP_OUTctBACTLP_OUTct  CMETAL#1kg  CMETAL#2kg  CMETAL#3kg     TOT Nkg     TOT Pkg NO3ConcMg/l    WTMPdegc     Salt1       Salt2       Salt3       Salt4       Salt5       Salt6       Salt7       Salt8       Salt9       Salt10       SAR           EC  
REACH    1        0     4  0.5790E+01  0.5919E-05  0.0000E+00  0.5919E-05  0.0000E+00  0.3201E-07  0.0000E+00  0.0000E+00  0.1665E-05  0.0000E+00  0.4995E-05  0.0000E+00  0.8796E-02  0.0000E+00  0.0000E+00  0.0000E+00  0.0000E+00  0.0000E+00  0.1667E-05  0.0000E+00  0.1524E-09  0.0000E+00  0.0000E+00  0.0000E+00  0.5953E-01  0.0000E+00  0.0000E+00  0.0000E+00  0.0000E+00  0.0000E+00  0.0000E+00  0.0000E+00  0.0000E+00  0.0000E+00  0.0000E+00  0.0000E+00  0.0000E+00  0.0000E+00  0.0000E+00  0.0000E+00  0.0000E+00  0.0000E+00  0.0000E+00  0.0000E+00  0.0000E+00  0.0000E+00  0.0000E+00  0.0000E+00  0.0000E+00  0.0000E+00  0.0000E+00  0.0000E+00  0.0000E+00  0.0000E+00  0.0000E+00  0.0000E+00  0.0000E+00  0.0000E+00  0.0000E+00
REACH    2        0     4  0.2233E+01  0.5552E-05  0.0000E+00  0.5552E-05  0.0000E+00  0.3199E-07  0.0000E+00  0.0000E+00  0.2105E-05  0.0000E+00  0.6314E-05  0.0000E+00  0.8249E-02  0.0000E+00  0.0000E+00  0.0000E+00  0.0000E+00  0.0000E+00  0.2107E-05  0.0000E+00  0.2454E-09  0.0000E+00  0.0000E+00  0.0000E+00  0.5581E-01  0.0000E+00  0.0000E+00  0.0000E+00  0.0000E+00  0.0000E+00  0.0000E+00  0.0000E+00  0.0000E+00  0.0000E+00  0.0000E+00  0.0000E+00  0.0000E+00  0.0000E+00  0.0000E+00  0.0000E+00  0.0000E+00  0.0000E+00  0.0000E+00  0.0000E+00  0.0000E+00  0.0000E+00  0.0000E+00  0.0000E+00  0.0000E+00  0.0000E+00  0.0000E+00  0.0000E+00  0.0000E+00  0.0000E+00  0.0000E+00  0.0000E+00  0.0000E+00  0.0000E+00  0.0000E+00
REACH    3        0     4  0.1834E+01  0.5997E-05  0.0000E+00  0.5997E-05  0.0000E+00  0.8540E-07  0.0000E+00  0.0000E+00  0.1807E-05  0.0000E+00  0.5421E-05  0.0000E+00  0.9033E-02  0.0000E+00  0.0000E+00  0.0000E+00  0.0000E+00  0.0000E+00  0.1809E-05  0.0000E+00  0.1841E-09  0.0000E+00  0.0000E+00  0.0000E+00  0.6032E-01  0.0000E+00  0.0000E+00  0.0000E+00  0.0000E+00  0.0000E+00  0.0000E+00  0.0000E+00  0.0000E+00  0.0000E+00  0.0000E+00  0.0000E+00  0.0000E+00  0.0000E+00  0.0000E+00  0.0000E+00  0.0000E+00  0.0000E+00  0.0000E+00  0.0000E+00  0.0000E+00  0.0000E+00  0.0000E+00  0.0000E+00  0.0000E+00  0.0000E+00  0.0000E+00  0.0000E+00  0.0000E+00  0.0000E+00  0.0000E+00  0.0000E+00  0.0000E+00  0.0000E+00  0.0000E+00
REACH    1        0     5  0.5790E+01  0.1102E-03  0.7418E-04  0.2642E-04  0.0000E+00  0.2166E-06  0.0000E+00  0.0000E+00  0.7883E-05  0.2297E-05  0.2286E-04  0.5543E-05  0.6638E+00  0.4520E+00  0.3978E-02  0.8294E-02  0.0000E+00  0.1189E-02  0.1489E-04  0.2934E-03  0.8879E-09  0.0000E+00  0.0000E+00  0.0000E+00  0.3341E+01  0.2248E+01  0.0000E+00  0.0000E+00  0.0000E+00  0.0000E+00  0.0000E+00  0.0000E+00  0.0000E+00  0.0000E+00  0.0000E+00  0.0000E+00  0.0000E+00  0.0000E+00  0.0000E+00  0.0000E+00  0.0000E+00  0.0000E+00  0.0000E+00  0.4615E+00  0.2989E-03  0.0000E+00  0.0000E+00  0.0000E+00  0.0000E+00  0.0000E+00  0.0000E+00  0.0000E+00  0.0000E+00  0.0000E+00  0.0000E+00  0.0000E+00  0.0000E+00  0.0000E+00  0.0000E+00
REACH    2        0     5  0.2233E+01  0.4065E-04  0.3084E-04  0.9808E-05  0.0000E+00  0.9917E-07  0.3199E-07  0.1417E-03  0.6525E-05  0.1377E-05  0.1957E-04  0.3701E-05  0.2363E+00  0.1812E+00  0.0000E+00  0.1949E-02  0.0000E+00  0.0000E+00  0.6532E-05  0.4971E-05  0.1037E-08  0.0000E+00  0.0000E+00  0.0000E+00  0.1231E+01  0.9340E+00  0.0000E+00  0.0000E+00  0.0000E+00  0.0000E+00  0.0000E+00  0.0000E+00  0.0000E+00  0.0000E+00  0.0000E+00  0.0000E+00  0.0000E+00  0.0000E+00  0.0000E+00  0.0000E+00  0.0000E+00  0.0000E+00  0.0000E+00  0.1832E+00  0.8672E-05  0.0000E+00  0.0000E+00  0.0000E+00  0.0000E+00  0.0000E+00  0.0000E+00  0.0000E+00  0.0000E+00  0.0000E+00  0.0000E+00  0.0000E+00  0.0000E+00  0.0000E+00  0.0000E+00
REACH    3        0     5  0.1834E+01  0.4435E-04  0.3731E-04  0.7042E-05  0.0000E+00  0.2647E-06  0.8540E-07  0.3005E-03  0.5601E-05  0.1345E-05  0.1680E-04  0.3671E-05  0.2798E+00  0.2384E+00  0.0000E+00  0.2028E-02  0.0000E+00  0.0000E+00  0.5607E-05  0.4748E-05  0.9407E-09  0.0000E+00  0.0000E+00  0.0000E+00  0.1345E+01  0.1129E+01  0.0000E+00  0.0000E+00  0.0000E+00  0.0000E+00  0.0000E+00  0.0000E+00  0.0000E+00  0.0000E+00  0.0000E+00  0.0000E+00  0.0000E+00  0.0000E+00  0.0000E+00  0.0000E+00  0.0000E+00  0.0000E+00  0.0000E+00  0.2405E+00  0.8419E-05  0.0000E+00  0.0000E+00  0.0000E+00  0.0000E+00  0.0000E+00  0.0000E+00  0.0000E+00  0.0000E+00  0.0000E+00  0.0000E+00  0.0000E+00  0.0000E+00  0.0000E+00  0.0000E+00
REACH    1        0     6  0.5790E+01  0.2010E-03  0.1081E-03  0.1028E-03  0.0000E+00  0.4290E-06  0.0000E+00  0.0000E+00  0.1052E-04  0.3791E-05  0.3001E-04  0.9290E-05  0.9761E+00  0.5281E+00  0.5957E-02  0.1103E-01  0.0000E+00  0.1416E-02  0.2463E-04  0.3972E-03  0.1087E-09  0.0000E+00  0.0000E+00  0.0000E+00  0.6092E+01  0.3262E+01  0.0000E+00  0.0000E+00  0.0000E+00  0.0000E+00  0.0000E+00  0.0000E+00  0.0000E+00  0.0000E+00  0.0000E+00  0.0000E+00  0.0000E+00  0.0000E+00  0.0000E+00  0.0000E+00  0.0000E+00  0.0000E+00  0.0000E+00  0.5406E+00  0.4065E-03  0.0000E+00  0.0000E+00  0.0000E+00  0.0000E+00  0.0000E+00  0.0000E+00  0.0000E+00  0.0000E+00  0.0000E+00  0.0000E+00  0.0000E+00  0.0000E+00  0.0000E+00  0.0000E+00
REACH    2        0     6  0.2233E+01  0.8477E-04  0.4613E-04  0.3864E-04  0.0000E+00  0.9597E-07  0.7678E-07  0.1067E-02  0.6314E-05  0.2436E-05  0.1894E-04  0.6596E-05  0.3972E+00  0.2158E+00  0.0000E+00  0.2598E-02  0.0000E+00  0.0000E+00  0.6321E-05  0.8717E-05  0.1696E-09  0.0000E+00  0.0000E+00  0.0000E+00  0.2584E+01  0.1391E+01  0.0000E+00  0.0000E+00  0.0000E+00  0.0000E+00  0.0000E+00  0.0000E+00  0.0000E+00  0.0000E+00  0.0000E+00  0.0000E+00  0.0000E+00  0.0000E+00  0.0000E+00  0.0000E+00  0.0000E+00  0.0000E+00  0.0000E+00  0.2184E+00  0.1531E-04  0.0000E+00  0.0000E+00  0.0000E+00  0.0000E+00  0.0000E+00  0.0000E+00  0.0000E+00  0.0000E+00  0.0000E+00  0.0000E+00  0.0000E+00  0.0000E+00  0.0000E+00  0.0000E+00
REACH    3        0     6  0.1834E+01  0.9252E-04  0.6726E-04  0.2526E-04  0.0000E+00  0.2562E-06  0.2562E-06  0.2720E-02  0.5421E-05  0.3087E-05  0.1626E-04  0.8424E-05  0.4815E+00  0.3498E+00  0.0000E+00  0.3358E-02  0.0000E+00  0.0000E+00  0.5426E-05  0.1091E-04  0.1260E-09  0.0000E+00  0.0000E+00  0.0000E+00  0.2820E+01  0.2029E+01  0.0000E+00  0.0000E+00  0.0000E+00  0.0000E+00  0.0000E+00  0.0000E+00  0.0000E+00  0.0000E+00  0.0000E+00  0.0000E+00  0.0000E+00  0.0000E+00  0.0000E+00  0.0000E+00  0.0000E+00  0.0000E+00  0.0000E+00  0.3531E+00  0.1934E-04  0.0000E+00  0.0000E+00  0.0000E+00  0.0000E+00  0.0000E+00  0.0000E+00  0.0000E+00  0.0000E+00  0.0000E+00  0.0000E+00  0.0000E+00  0.0000E+00  0.0000E+00  0.0000E+00
REACH    1        0     7  0.5790E+01  0.1657E-04  0.3261E-06  0.1624E-04  0.0000E+00  0.1750E-06  0.0000E+00  0.0000E+00  0.5806E-05  0.8716E-07  0.1723E-04  0.2234E-06  0.7664E-01  0.1541E-02  0.1974E-03  0.2759E-04  0.0000E+00  0.2310E-05  0.7475E-05  0.7257E-06  0.1110E-08  0.0000E+00  0.0000E+00  0.0000E+00  0.5155E+00  0.1004E-01  0.0000E+00  0.0000E+00  0.0000E+00  0.0000E+00  0.0000E+00  0.0000E+00  0.0000E+00  0.0000E+00  0.0000E+00  0.0000E+00  0.0000E+00  0.0000E+00  0.0000E+00  0.0000E+00  0.0000E+00  0.0000E+00  0.0000E+00  0.1571E-02  0.9491E-06  0.0000E+00  0.0000E+00  0.0000E+00  0.0000E+00  0.0000E+00  0.0000E+00  0.0000E+00  0.0000E+00  0.0000E+00  0.0000E+00  0.0000E+00  0.0000E+00  0.0000E+00  0.0000E+00
REACH    2        0     7  0.2233E+01  0.1279E-04  0.7547E-06  0.1204E-04  0.0000E+00  0.9917E-07  0.1600E-07  0.2279E-02  0.6525E-05  0.1870E-06  0.1957E-04  0.5049E-06  0.5797E-01  0.3423E-02  0.0000E+00  0.4484E-04  0.0000E+00  0.0000E+00  0.6532E-05  0.6713E-06  0.1337E-08  0.0000E+00  0.0000E+00  0.0000E+00  0.3934E+00  0.2336E-01  0.0000E+00  0.0000E+00  0.0000E+00  0.0000E+00  0.0000E+00  0.0000E+00  0.0000E+00  0.0000E+00  0.0000E+00  0.0000E+00  0.0000E+00  0.0000E+00  0.0000E+00  0.0000E+00  0.0000E+00  0.0000E+00  0.0000E+00  0.3468E-02  0.1176E-05  0.0000E+00  0.0000E+00  0.0000E+00  0.0000E+00  0.0000E+00  0.0000E+00  0.0000E+00  0.0000E+00  0.0000E+00  0.0000E+00  0.0000E+00  0.0000E+00  0.0000E+00  0.0000E+00
REACH    3        0     7  0.1834E+01  0.1396E-04  0.2614E-05  0.1135E-04  0.0000E+00  0.2647E-06  0.5978E-07  0.3559E-02  0.5601E-05  0.4570E-06  0.1680E-04  0.1236E-05  0.7127E-01  0.1335E-01  0.0000E+00  0.1526E-03  0.0000E+00  0.0000E+00  0.5607E-05  0.1637E-05  0.1277E-08  0.0000E+00  0.0000E+00  0.0000E+00  0.4344E+00  0.8140E-01  0.0000E+00  0.0000E+00  0.0000E+00  0.0000E+00  0.0000E+00  0.0000E+00  0.0000E+00  0.0000E+00  0.0000E+00  0.0000E+00  0.0000E+00  0.0000E+00  0.0000E+00  0.0000E+00  0.0000E+00  0.0000E+00  0.0000E+00  0.1351E-01  0.2873E-05  0.0000E+00  0.0000E+00  0.0000E+00  0.0000E+00  0.0000E+00  0.0000E+00  0.0000E+00  0.0000E+00  0.0000E+00  0.0000E+00  0.0000E+00  0.0000E+00  0.0000E+00  0.0000E+00
REACH    1        0     8  0.5790E+01  0.5782E-03  0.5032E-03  0.6673E-04  0.0000E+00  0.3223E-06  0.0000E+00  0.0000E+00  0.1188E-04  0.7250E-05  0.3449E-04  0.1960E-04  0.2837E+01  0.2468E+01  0.7253E-02  0.2221E-01  0.8797E-05  0.4059E-03  0.3858E-04  0.5963E-03  0.2537E-10  0.0000E+00  0.0000E+00  0.0000E+00  0.1843E+02  0.1602E+02  0.0000E+00  0.0000E+00  0.0000E+00  0.0000E+00  0.0000E+00  0.0000E+00  0.0000E+00  0.0000E+00  0.0000E+00  0.0000E+00  0.0000E+00  0.0000E+00  0.0000E+00  0.0000E+00  0.0000E+00  0.0000E+00  0.0000E+00  0.2491E+01  0.6159E-03  0.0000E+00  0.0000E+00  0.0000E+00  0.0000E+00  0.0000E+00  0.0000E+00  0.0000E+00  0.0000E+00  0.0000E+00  0.0000E+00  0.0000E+00  0.0000E+00  0.0000E+00  0.0000E+00
REACH    2        0     8  0.2233E+01  0.1968E-03  0.1747E-03  0.2206E-04  0.0000E+00  0.9917E-07  0.3519E-07  0.1263E-03  0.6525E-05  0.3431E-05  0.1957E-04  0.9633E-05  0.8876E+00  0.7878E+00  0.0000E+00  0.2774E-02  0.0000E+00  0.8797E-05  0.6532E-05  0.2263E-04  0.3947E-10  0.0000E+00  0.0000E+00  0.0000E+00  0.6302E+01  0.5554E+01  0.0000E+00  0.0000E+00  0.0000E+00  0.0000E+00  0.0000E+00  0.0000E+00  0.0000E+00  0.0000E+00  0.0000E+00  0.0000E+00  0.0000E+00  0.0000E+00  0.0000E+00  0.0000E+00  0.0000E+00  0.0000E+00  0.0000E+00  0.7905E+00  0.3227E-04  0.0000E+00  0.0000E+00  0.0000E+00  0.0000E+00  0.0000E+00  0.0000E+00  0.0000E+00  0.0000E+00  0.0000E+00  0.0000E+00  0.0000E+00  0.0000E+00  0.0000E+00  0.0000E+00
REACH    3        0     8  0.1834E+01  0.2150E-03  0.2007E-03  0.1423E-04  0.0000E+00  0.2647E-06  0.1879E-06  0.3647E-03  0.5601E-05  0.3282E-05  0.1680E-04  0.9377E-05  0.1212E+01  0.1131E+01  0.0000E+00  0.4479E-02  0.0000E+00  0.0000E+00  0.5607E-05  0.1078E-04  0.3053E-10  0.0000E+00  0.0000E+00  0.0000E+00  0.6884E+01  0.6382E+01  0.0000E+00  0.0000E+00  0.0000E+00  0.0000E+00  0.0000E+00  0.0000E+00  0.0000E+00  0.0000E+00  0.0000E+00  0.0000E+00  0.0000E+00  0.0000E+00  0.0000E+00  0.0000E+00  0.0000E+00  0.0000E+00  0.0000E+00  0.1136E+01  0.2016E-04  0.0000E+00  0.0000E+00  0.0000E+00  0.0000E+00  0.0000E+00  0.0000E+00  0.0000E+00  0.0000E+00  0.0000E+00  0.0000E+00  0.0000E+00  0.0000E+00  0.0000E+00  0.0000E+00
REACH    1        0     9  0.5790E+01  0.9468E-03  0.8518E-03  0.9065E-04  0.0000E+00  0.4098E-06  0.0000E+00  0.0000E+00  0.1414E-04  0.1053E-04  0.4097E-04  0.2860E-04  0.1784E+01  0.1564E+01  0.1096E-01  0.3273E-01  0.1291E-04  0.1767E-02  0.4113E-04  0.9005E-03  0.3545E-10  0.0000E+00  0.0000E+00  0.0000E+00  0.2889E+02  0.2589E+02  0.0000E+00  0.0000E+00  0.0000E+00  0.0000E+00  0.0000E+00  0.0000E+00  0.0000E+00  0.0000E+00  0.0000E+00  0.0000E+00  0.0000E+00  0.0000E+00  0.0000E+00  0.0000E+00  0.0000E+00  0.0000E+00  0.0000E+00  0.1599E+01  0.9291E-03  0.0000E+00  0.0000E+00  0.0000E+00  0.0000E+00  0.0000E+00  0.0000E+00  0.0000E+00  0.0000E+00  0.0000E+00  0.0000E+00  0.0000E+00  0.0000E+00  0.0000E+00  0.0000E+00
REACH    2        0     9  0.2233E+01  0.3201E-03  0.2861E-03  0.2969E-04  0.0000E+00  0.9597E-07  0.5758E-07  0.5442E-03  0.6314E-05  0.4637E-05  0.1894E-04  0.1304E-04  0.5520E+00  0.4765E+00  0.0000E+00  0.4939E-02  0.0000E+00  0.1291E-04  0.6321E-05  0.2141E-04  0.5524E-10  0.0000E+00  0.0000E+00  0.0000E+00  0.9828E+01  0.8701E+01  0.0000E+00  0.0000E+00  0.0000E+00  0.0000E+00  0.0000E+00  0.0000E+00  0.0000E+00  0.0000E+00  0.0000E+00  0.0000E+00  0.0000E+00  0.0000E+00  0.0000E+00  0.0000E+00  0.0000E+00  0.0000E+00  0.0000E+00  0.4814E+00  0.3445E-04  0.0000E+00  0.0000E+00  0.0000E+00  0.0000E+00  0.0000E+00  0.0000E+00  0.0000E+00  0.0000E+00  0.0000E+00  0.0000E+00  0.0000E+00  0.0000E+00  0.0000E+00  0.0000E+00
REACH    3        0     9  0.1834E+01  0.3496E-03  0.3306E-03  0.1897E-04  0.0000E+00  0.2562E-06  0.2562E-06  0.5716E-03  0.5421E-05  0.4513E-05  0.1626E-04  0.1295E-04  0.7906E+00  0.7319E+00  0.0000E+00  0.6026E-02  0.0000E+00  0.0000E+00  0.5426E-05  0.1472E-04  0.4100E-10  0.0000E+00  0.0000E+00  0.0000E+00  0.1073E+02  0.1005E+02  0.0000E+00  0.0000E+00  0.0000E+00  0.0000E+00  0.0000E+00  0.0000E+00  0.0000E+00  0.0000E+00  0.0000E+00  0.0000E+00  0.0000E+00  0.0000E+00  0.0000E+00  0.0000E+00  0.0000E+00  0.0000E+00  0.0000E+00  0.7380E+00  0.2767E-04  0.0000E+00  0.0000E+00  0.0000E+00  0.0000E+00  0.0000E+00  0.0000E+00  0.0000E+00  0.0000E+00  0.0000E+00  0.0000E+00  0.0000E+00  0.0000E+00  0.0000E+00  0.0000E+00
REACH    1        0    10  0.5790E+01  0.3124E-02  0.3058E-02  0.5999E-04  0.0000E+00  0.1106E+03  0.1166E+00  0.5528E+01  0.2405E+03  0.2371E+03  0.5229E+02  0.5130E+02  0.1211E+01  0.1173E+01  0.2571E+00  0.8185E+00  0.1770E-03  0.2247E-02  0.2644E-01  0.8829E-01  0.1645E+01  0.0000E+00  0.3504E+04  0.3243E+04  0.8111E+02  0.6888E+02  0.0000E+00  0.0000E+00  0.0000E+00  0.0000E+00  0.0000E+00  0.0000E+00  0.0000E+00  0.0000E+00  0.0000E+00  0.0000E+00  0.0000E+00  0.0000E+00  0.0000E+00  0.0000E+00  0.0000E+00  0.0000E+00  0.0000E+00  0.2391E+03  0.5139E+02  0.0000E+00  0.0000E+00  0.0000E+00  0.0000E+00  0.0000E+00  0.0000E+00  0.0000E+00  0.0000E+00  0.0000E+00  0.0000E+00  0.0000E+00  0.0000E+00  0.0000E+00  0.0000E+00
REACH    2        0    10  0.2233E+01  0.1040E-02  0.1019E-02  0.1962E-04  0.0000E+00  0.4561E+02  0.4367E+02  0.3896E+04  0.1027E+03  0.1015E+03  0.2238E+02  0.2204E+02  0.3706E+00  0.3434E+00  0.0000E+00  0.8783E-01  0.0000E+00  0.1169E-03  0.5498E-02  0.1822E-01  0.1784E+01  0.0000E+00  0.1667E+04  0.1563E+04  0.3072E+02  0.2277E+02  0.0000E+00  0.0000E+00  0.0000E+00  0.0000E+00  0.0000E+00  0.0000E+00  0.0000E+00  0.0000E+00  0.0000E+00  0.0000E+00  0.0000E+00  0.0000E+00  0.0000E+00  0.0000E+00  0.0000E+00  0.0000E+00  0.0000E+00  0.1020E+03  0.2206E+02  0.0000E+00  0.0000E+00  0.0000E+00  0.0000E+00  0.0000E+00  0.0000E+00  0.0000E+00  0.0000E+00  0.0000E+00  0.0000E+00  0.0000E+00  0.0000E+00  0.0000E+00  0.0000E+00
REACH    3        0    10  0.1834E+01  0.1072E-02  0.1055E-02  0.1253E-04  0.0000E+00  0.1432E+02  0.1373E+02  0.1848E+04  0.3029E+02  0.2998E+02  0.6601E+01  0.6508E+01  0.4987E+00  0.4849E+00  0.0000E+00  0.1693E+00  0.0000E+00  0.6017E-04  0.1266E-02  0.4131E-02  0.4521E+00  0.0000E+00  0.4238E+03  0.3990E+03  0.3335E+02  0.2681E+02  0.0000E+00  0.0000E+00  0.0000E+00  0.0000E+00  0.0000E+00  0.0000E+00  0.0000E+00  0.0000E+00  0.0000E+00  0.0000E+00  0.0000E+00  0.0000E+00  0.0000E+00  0.0000E+00  0.0000E+00  0.0000E+00  0.0000E+00  0.3063E+02  0.6513E+01  0.0000E+00  0.0000E+00  0.0000E+00  0.0000E+00  0.0000E+00  0.0000E+00  0.0000E+00  0.0000E+00  0.0000E+00  0.0000E+00  0.0000E+00  0.0000E+00  0.0000E+00  0.0000E+00
REACH    1        0    11  0.5790E+01  0.4008E-01  0.4002E-01  0.3942E-04  0.0000E+00  0.1867E+05  0.1587E+02  0.7743E+02  0.3395E+05  0.3388E+05  0.7397E+04  0.7374E+04  0.9478E+02  0.9228E+02  0.1239E+02  0.3701E+02  0.3929E-03  0.1065E-01  0.3493E+01  0.1070E+02  0.9677E+03  0.7415E+03  0.1175E+07  0.1159E+07  0.2593E+03  0.7136E+02  0.0000E+00  0.0000E+00  0.0000E+00  0.0000E+00  0.0000E+00  0.0000E+00  0.0000E+00  0.0000E+00  0.0000E+00  0.0000E+00  0.0000E+00  0.0000E+00  0.0000E+00  0.0000E+00  0.0000E+00  0.0000E+00  0.0000E+00  0.3401E+05  0.7384E+04  0.0000E+00  0.0000E+00  0.0000E+00  0.0000E+00  0.0000E+00  0.0000E+00  0.0000E+00  0.0000E+00  0.0000E+00  0.0000E+00  0.0000E+00  0.0000E+00  0.0000E+00  0.0000E+00
REACH    2        0    11  0.2233E+01  0.1509E-01  0.1508E-01  0.1291E-04  0.0000E+00  0.5964E+04  0.5910E+04  0.3571E+05  0.1156E+05  0.1154E+05  0.2520E+04  0.2514E+04  0.3250E+02  0.3150E+02  0.0000E+00  0.8801E+01  0.0000E+00  0.2731E-03  0.6054E+00  0.1843E+01  0.3890E+03  0.2941E+03  0.4040E+06  0.3995E+06  0.1943E+03  0.2687E+02  0.0000E+00  0.0000E+00  0.0000E+00  0.0000E+00  0.0000E+00  0.0000E+00  0.0000E+00  0.0000E+00  0.0000E+00  0.0000E+00  0.0000E+00  0.0000E+00  0.0000E+00  0.0000E+00  0.0000E+00  0.0000E+00  0.0000E+00  0.1158E+05  0.2516E+04  0.0000E+00  0.0000E+00  0.0000E+00  0.0000E+00  0.0000E+00  0.0000E+00  0.0000E+00  0.0000E+00  0.0000E+00  0.0000E+00  0.0000E+00  0.0000E+00  0.0000E+00  0.0000E+00
REACH    3        0    11  0.1834E+01  0.1212E-01  0.1211E-01  0.8241E-05  0.0000E+00  0.5750E+04  0.5708E+04  0.3275E+05  0.1039E+05  0.1038E+05  0.2264E+04  0.2260E+04  0.3191E+02  0.3125E+02  0.0000E+00  0.3594E+01  0.0000E+00  0.1198E-03  0.3927E+00  0.1197E+01  0.3403E+03  0.2805E+03  0.3544E+06  0.3512E+06  0.1914E+03  0.4360E+02  0.0000E+00  0.0000E+00  0.0000E+00  0.0000E+00  0.0000E+00  0.0000E+00  0.0000E+00  0.0000E+00  0.0000E+00  0.0000E+00  0.0000E+00  0.0000E+00  0.0000E+00  0.0000E+00  0.0000E+00  0.0000E+00  0.0000E+00  0.1041E+05  0.2261E+04  0.0000E+00  0.0000E+00  0.0000E+00  0.0000E+00  0.0000E+00  0.0000E+00  0.0000E+00  0.0000E+00  0.0000E+00  0.0000E+00  0.0000E+00  0.0000E+00  0.0000E+00  0.0000E+00
REACH    1        0    12  0.5790E+01  0.1461E+00  0.1460E+00  0.3652E-04  0.0000E+00  0.6894E+05  0.9227E+02  0.1472E+03  0.6298E+05  0.6289E+05  0.1382E+05  0.1379E+05  0.2750E+03  0.2717E+03  0.1878E+02  0.5714E+02  0.3288E-03  0.1113E-01  0.8738E+01  0.2485E+02  0.1994E+04  0.1734E+04  0.4297E+07  0.4247E+07  0.7858E+03  0.1353E+03  0.0000E+00  0.0000E+00  0.0000E+00  0.0000E+00  0.0000E+00  0.0000E+00  0.0000E+00  0.0000E+00  0.0000E+00  0.0000E+00  0.0000E+00  0.0000E+00  0.0000E+00  0.0000E+00  0.0000E+00  0.0000E+00  0.0000E+00  0.6322E+05  0.1381E+05  0.0000E+00  0.0000E+00  0.0000E+00  0.0000E+00  0.0000E+00  0.0000E+00  0.0000E+00  0.0000E+00  0.0000E+00  0.0000E+00  0.0000E+00  0.0000E+00  0.0000E+00  0.0000E+00
REACH    2        0    12  0.2233E+01  0.5489E-01  0.5486E-01  0.1208E-04  0.0000E+00  0.2051E+05  0.2038E+05  0.5101E+05  0.2250E+05  0.2247E+05  0.4933E+04  0.4925E+04  0.9393E+02  0.9296E+02  0.0000E+00  0.1027E+02  0.0000E+00  0.2325E-03  0.1525E+01  0.4561E+01  0.7713E+03  0.6782E+03  0.1365E+07  0.1354E+07  0.7028E+03  0.8498E+02  0.0000E+00  0.0000E+00  0.0000E+00  0.0000E+00  0.0000E+00  0.0000E+00  0.0000E+00  0.0000E+00  0.0000E+00  0.0000E+00  0.0000E+00  0.0000E+00  0.0000E+00  0.0000E+00  0.0000E+00  0.0000E+00  0.0000E+00  0.2258E+05  0.4929E+04  0.0000E+00  0.0000E+00  0.0000E+00  0.0000E+00  0.0000E+00  0.0000E+00  0.0000E+00  0.0000E+00  0.0000E+00  0.0000E+00  0.0000E+00  0.0000E+00  0.0000E+00  0.0000E+00
REACH    3        0    12  0.1834E+01  0.4557E-01  0.4555E-01  0.7728E-05  0.0000E+00  0.2417E+05  0.2405E+05  0.5909E+05  0.2223E+05  0.2222E+05  0.4879E+04  0.4873E+04  0.8958E+02  0.8888E+02  0.0000E+00  0.8511E+01  0.0000E+00  0.9634E-04  0.1075E+01  0.3232E+01  0.7659E+03  0.6953E+03  0.1505E+07  0.1495E+07  0.5679E+03  0.6923E+02  0.0000E+00  0.0000E+00  0.0000E+00  0.0000E+00  0.0000E+00  0.0000E+00  0.0000E+00  0.0000E+00  0.0000E+00  0.0000E+00  0.0000E+00  0.0000E+00  0.0000E+00  0.0000E+00  0.0000E+00  0.0000E+00  0.0000E+00  0.2231E+05  0.4876E+04  0.0000E+00  0.0000E+00  0.0000E+00  0.0000E+00  0.0000E+00  0.0000E+00  0.0000E+00  0.0000E+00  0.0000E+00  0.0000E+00  0.0000E+00  0.0000E+00  0.0000E+00  0.0000E+00
REACH    1        0  1981  0.5790E+01  0.2308E-01  0.2301E-01  0.5266E-04  0.0000E+00  0.8772E+05  0.1083E+03  0.2767E+02  0.9718E+05  0.9701E+05  0.2127E+05  0.2121E+05  0.3773E+03  0.3702E+03  0.3146E+02  0.9504E+02  0.9204E-03  0.2880E-01  0.1226E+02  0.3564E+02  0.2963E+04  0.2475E+04  0.5475E+07  0.5409E+07  0.1184E+04  0.3230E+03  0.0000E+00  0.0000E+00  0.0000E+00  0.0000E+00  0.0000E+00  0.0000E+00  0.0000E+00  0.0000E+00  0.0000E+00  0.0000E+00  0.0000E+00  0.0000E+00  0.0000E+00  0.0000E+00  0.0000E+00  0.0000E+00  0.0000E+00  0.9748E+05  0.2125E+05  0.0000E+00  0.0000E+00  0.0000E+00  0.0000E+00  0.0000E+00  0.0000E+00  0.0000E+00  0.0000E+00  0.0000E+00  0.0000E+00  0.0000E+00  0.0000E+00  0.0000E+00  0.0000E+00
REACH    2        0  1981  0.2233E+01  0.8653E-02  0.8631E-02  0.1896E-04  0.0000E+00  0.2652E+05  0.2633E+05  0.1088E+05  0.3416E+05  0.3412E+05  0.7475E+04  0.7460E+04  0.1289E+03  0.1265E+03  0.0000E+00  0.1917E+02  0.0000E+00  0.6441E-03  0.2136E+01  0.6423E+01  0.1162E+04  0.9723E+03  0.1771E+07  0.1755E+07  0.9482E+03  0.1512E+03  0.0000E+00  0.0000E+00  0.0000E+00  0.0000E+00  0.0000E+00  0.0000E+00  0.0000E+00  0.0000E+00  0.0000E+00  0.0000E+00  0.0000E+00  0.0000E+00  0.0000E+00  0.0000E+00  0.0000E+00  0.0000E+00  0.0000E+00  0.3426E+05  0.7467E+04  0.0000E+00  0.0000E+00  0.0000E+00  0.0000E+00  0.0000E+00  0.0000E+00  0.0000E+00  0.0000E+00  0.0000E+00  0.0000E+00  0.0000E+00  0.0000E+00  0.0000E+00  0.0000E+00
REACH    3        0  1981  0.1834E+01  0.7181E-02  0.7166E-02  0.1284E-04  0.0000E+00  0.2993E+05  0.2977E+05  0.1126E+05  0.3265E+05  0.3262E+05  0.7150E+04  0.7140E+04  0.1248E+03  0.1231E+03  0.0000E+00  0.1229E+02  0.0000E+00  0.2763E-03  0.1469E+01  0.4433E+01  0.1107E+04  0.9758E+03  0.1859E+07  0.1846E+07  0.8149E+03  0.1593E+03  0.0000E+00  0.0000E+00  0.0000E+00  0.0000E+00  0.0000E+00  0.0000E+00  0.0000E+00  0.0000E+00  0.0000E+00  0.0000E+00  0.0000E+00  0.0000E+00  0.0000E+00  0.0000E+00  0.0000E+00  0.0000E+00  0.0000E+00  0.3276E+05  0.7144E+04  0.0000E+00  0.0000E+00  0.0000E+00  0.0000E+00  0.0000E+00  0.0000E+00  0.0000E+00  0.0000E+00  0.0000E+00  0.0000E+00  0.0000E+00  0.0000E+00  0.0000E+00  0.0000E+00
REACH    1        0     1  0.5790E+01  0.1955E+00  0.1955E+00  0.2688E-04  0.0000E+00  0.7355E+05  0.1270E+03  0.1878E+03  0.2182E+05  0.2180E+05  0.4825E+04  0.4817E+04  0.2626E+03  0.2620E+03  0.7074E+01  0.2139E+02  0.9298E-04  0.8282E-02  0.4368E+01  0.1156E+02  0.5641E+03  0.4868E+03  0.4109E+07  0.4071E+07  0.1351E+04  0.3217E+03  0.0000E+00  0.0000E+00  0.0000E+00  0.0000E+00  0.0000E+00  0.0000E+00  0.0000E+00  0.0000E+00  0.0000E+00  0.0000E+00  0.0000E+00  0.0000E+00  0.0000E+00  0.0000E+00  0.0000E+00  0.0000E+00  0.0000E+00  0.2208E+05  0.4829E+04  0.0000E+00  0.0000E+00  0.0000E+00  0.0000E+00  0.0000E+00  0.0000E+00  0.0000E+00  0.0000E+00  0.0000E+00  0.0000E+00  0.0000E+00  0.0000E+00  0.0000E+00  0.0000E+00
REACH    2        0     1  0.2233E+01  0.7195E-01  0.7195E-01  0.8869E-05  0.0000E+00  0.2173E+05  0.2161E+05  0.5519E+05  0.8618E+04  0.8613E+04  0.1904E+04  0.1902E+04  0.8132E+02  0.8119E+02  0.0000E+00  0.4395E+01  0.0000E+00  0.6858E-04  0.8935E+00  0.2486E+01  0.2482E+03  0.2181E+03  0.1321E+07  0.1312E+07  0.1136E+04  0.1558E+03  0.0000E+00  0.0000E+00  0.0000E+00  0.0000E+00  0.0000E+00  0.0000E+00  0.0000E+00  0.0000E+00  0.0000E+00  0.0000E+00  0.0000E+00  0.0000E+00  0.0000E+00  0.0000E+00  0.0000E+00  0.0000E+00  0.0000E+00  0.8698E+04  0.1904E+04  0.0000E+00  0.0000E+00  0.0000E+00  0.0000E+00  0.0000E+00  0.0000E+00  0.0000E+00  0.0000E+00  0.0000E+00  0.0000E+00  0.0000E+00  0.0000E+00  0.0000E+00  0.0000E+00
REACH    3        0     1  0.1834E+01  0.6247E-01  0.6247E-01  0.5719E-05  0.0000E+00  0.2610E+05  0.2598E+05  0.6462E+05  0.7165E+04  0.7161E+04  0.1587E+04  0.1585E+04  0.9884E+02  0.9876E+02  0.0000E+00  0.2679E+01  0.0000E+00  0.2440E-04  0.4845E+00  0.1410E+01  0.2012E+03  0.1821E+03  0.1432E+07  0.1424E+07  0.1042E+04  0.1406E+03  0.0000E+00  0.0000E+00  0.0000E+00  0.0000E+00  0.0000E+00  0.0000E+00  0.0000E+00  0.0000E+00  0.0000E+00  0.0000E+00  0.0000E+00  0.0000E+00  0.0000E+00  0.0000E+00  0.0000E+00  0.0000E+00  0.0000E+00  0.7262E+04  0.1586E+04  0.0000E+00  0.0000E+00  0.0000E+00  0.0000E+00  0.0000E+00  0.0000E+00  0.0000E+00  0.0000E+00  0.0000E+00  0.0000E+00  0.0000E+00  0.0000E+00  0.0000E+00  0.0000E+00
REACH    1        0     2  0.5790E+01  0.4713E+00  0.4712E+00  0.5403E-04  0.0000E+00  0.2293E+06  0.3530E+03  0.2823E+03  0.4696E+04  0.4693E+04  0.1066E+04  0.1065E+04  0.1920E+03  0.1919E+03  0.1303E+01  0.3712E+01  0.0000E+00  0.7411E-03  0.2801E+01  0.4382E+01  0.1293E+03  0.1182E+03  0.1211E+08  0.1202E+08  0.2291E+04  0.7886E+03  0.0000E+00  0.0000E+00  0.0000E+00  0.0000E+00  0.0000E+00  0.0000E+00  0.0000E+00  0.0000E+00  0.0000E+00  0.0000E+00  0.0000E+00  0.0000E+00  0.0000E+00  0.0000E+00  0.0000E+00  0.0000E+00  0.0000E+00  0.4889E+04  0.1069E+04  0.0000E+00  0.0000E+00  0.0000E+00  0.0000E+00  0.0000E+00  0.0000E+00  0.0000E+00  0.0000E+00  0.0000E+00  0.0000E+00  0.0000E+00  0.0000E+00  0.0000E+00  0.0000E+00
REACH    2        0     2  0.2233E+01  0.1659E+00  0.1658E+00  0.1818E-04  0.0000E+00  0.6772E+05  0.6741E+05  0.8514E+05  0.2710E+04  0.2709E+04  0.6102E+03  0.6096E+03  0.5190E+02  0.5187E+02  0.0000E+00  0.9377E+00  0.0000E+00  0.0000E+00  0.1077E+01  0.1758E+01  0.8225E+02  0.7592E+02  0.3974E+07  0.3951E+07  0.1796E+04  0.2597E+03  0.0000E+00  0.0000E+00  0.0000E+00  0.0000E+00  0.0000E+00  0.0000E+00  0.0000E+00  0.0000E+00  0.0000E+00  0.0000E+00  0.0000E+00  0.0000E+00  0.0000E+00  0.0000E+00  0.0000E+00  0.0000E+00  0.0000E+00  0.2761E+04  0.6113E+03  0.0000E+00  0.0000E+00  0.0000E+00  0.0000E+00  0.0000E+00  0.0000E+00  0.0000E+00  0.0000E+00  0.0000E+00  0.0000E+00  0.0000E+00  0.0000E+00  0.0000E+00  0.0000E+00
REACH    3        0     2  0.1834E+01  0.1684E+00  0.1684E+00  0.1195E-04  0.0000E+00  0.8125E+05  0.8098E+05  0.9362E+05  0.1140E+04  0.1139E+04  0.2618E+03  0.2617E+03  0.8642E+02  0.8642E+02  0.0000E+00  0.3654E+00  0.0000E+00  0.0000E+00  0.3614E+00  0.5712E+00  0.3080E+02  0.2913E+02  0.4016E+07  0.3999E+07  0.2366E+04  0.3860E+03  0.0000E+00  0.0000E+00  0.0000E+00  0.0000E+00  0.0000E+00  0.0000E+00  0.0000E+00  0.0000E+00  0.0000E+00  0.0000E+00  0.0000E+00  0.0000E+00  0.0000E+00  0.0000E+00  0.0000E+00  0.0000E+00  0.0000E+00  0.1226E+04  0.2622E+03  0.0000E+00  0.0000E+00  0.0000E+00  0.0000E+00  0.0000E+00  0.0000E+00  0.0000E+00  0.0000E+00  0.0000E+00  0.0000E+00  0.0000E+00  0.0000E+00  0.0000E+00  0.0000E+00
REACH    1        0     3  0.5790E+01  0.2570E+00  0.2570E+00  0.5427E-04  0.0000E+00  0.6020E+05  0.1655E+03  0.2164E+03  0.1094E+03  0.1093E+03  0.2691E+02  0.2685E+02  0.8121E+02  0.8121E+02  0.6014E-01  0.1709E+00  0.0000E+00  0.0000E+00  0.3617E+00  0.4196E+00  0.1727E+01  0.1486E+01  0.2853E+07  0.2826E+07  0.3304E+04  0.2056E+04  0.0000E+00  0.0000E+00  0.0000E+00  0.0000E+00  0.0000E+00  0.0000E+00  0.0000E+00  0.0000E+00  0.0000E+00  0.0000E+00  0.0000E+00  0.0000E+00  0.0000E+00  0.0000E+00  0.0000E+00  0.0000E+00  0.0000E+00  0.1907E+03  0.2727E+02  0.0000E+00  0.0000E+00  0.0000E+00  0.0000E+00  0.0000E+00  0.0000E+00  0.0000E+00  0.0000E+00  0.0000E+00  0.0000E+00  0.0000E+00  0.0000E+00  0.0000E+00  0.0000E+00
REACH    2        0     3  0.2233E+01  0.8367E-01  0.8365E-01  0.1810E-04  0.0000E+00  0.1778E+05  0.1768E+05  0.3317E+05  0.7371E+02  0.7363E+02  0.1754E+02  0.1751E+02  0.1719E+02  0.1719E+02  0.0000E+00  0.4534E-01  0.0000E+00  0.0000E+00  0.2011E+00  0.2299E+00  0.1331E+01  0.1145E+01  0.9670E+06  0.9597E+06  0.1783E+04  0.6639E+03  0.0000E+00  0.0000E+00  0.0000E+00  0.0000E+00  0.0000E+00  0.0000E+00  0.0000E+00  0.0000E+00  0.0000E+00  0.0000E+00  0.0000E+00  0.0000E+00  0.0000E+00  0.0000E+00  0.0000E+00  0.0000E+00  0.0000E+00  0.9087E+02  0.1774E+02  0.0000E+00  0.0000E+00  0.0000E+00  0.0000E+00  0.0000E+00  0.0000E+00  0.0000E+00  0.0000E+00  0.0000E+00  0.0000E+00  0.0000E+00  0.0000E+00  0.0000E+00  0.0000E+00
REACH    3        0     3  0.1834E+01  0.1025E+00  0.1025E+00  0.1199E-04  0.0000E+00  0.2136E+05  0.2128E+05  0.3517E+05  0.1007E+02  0.1006E+02  0.3130E+01  0.3126E+01  0.4605E+02  0.4605E+02  0.0000E+00  0.1480E-01  0.0000E+00  0.0000E+00  0.4166E-01  0.4570E-01  0.1385E+00  0.1273E+00  0.8988E+06  0.8943E+06  0.2487E+04  0.1077E+04  0.0000E+00  0.0000E+00  0.0000E+00  0.0000E+00  0.0000E+00  0.0000E+00  0.0000E+00  0.0000E+00  0.0000E+00  0.0000E+00  0.0000E+00  0.0000E+00  0.0000E+00  0.0000E+00  0.0000E+00  0.0000E+00  0.0000E+00  0.5613E+02  0.3172E+01  0.0000E+00  0.0000E+00  0.0000E+00  0.0000E+00  0.0000E+00  0.0000E+00  0.0000E+00  0.0000E+00  0.0000E+00  0.0000E+00  0.0000E+00  0.0000E+00  0.0000E+00  0.0000E+00
REACH    1        0     4  0.5790E+01  0.1979E+00  0.1978E+00  0.6781E-04  0.0000E+00  0.1780E+05  0.1095E+03  0.2063E+03  0.4403E+02  0.4396E+02  0.1010E+02  0.1007E+02  0.3415E+02  0.3416E+02  0.3277E-01  0.9446E-01  0.0000E+00  0.0000E+00  0.1305E+00  0.1544E+00  0.5380E+00  0.4525E+00  0.6526E+06  0.6449E+06  0.4053E+04  0.3510E+04  0.0000E+00  0.0000E+00  0.0000E+00  0.0000E+00  0.0000E+00  0.0000E+00  0.0000E+00  0.0000E+00  0.0000E+00  0.0000E+00  0.0000E+00  0.0000E+00  0.0000E+00  0.0000E+00  0.0000E+00  0.0000E+00  0.0000E+00  0.7822E+02  0.1022E+02  0.0000E+00  0.0000E+00  0.0000E+00  0.0000E+00  0.0000E+00  0.0000E+00  0.0000E+00  0.0000E+00  0.0000E+00  0.0000E+00  0.0000E+00  0.0000E+00  0.0000E+00  0.0000E+00
REACH    2        0     4  0.2233E+01  0.6746E-01  0.6744E-01  0.2276E-04  0.0000E+00  0.5271E+04  0.5235E+04  0.1689E+05  0.2973E+02  0.2969E+02  0.6753E+01  0.6739E+01  0.6642E+01  0.6644E+01  0.0000E+00  0.2251E-01  0.0000E+00  0.0000E+00  0.7167E-01  0.8340E-01  0.4198E+00  0.3570E+00  0.2245E+06  0.2225E+06  0.1734E+04  0.1201E+04  0.0000E+00  0.0000E+00  0.0000E+00  0.0000E+00  0.0000E+00  0.0000E+00  0.0000E+00  0.0000E+00  0.0000E+00  0.0000E+00  0.0000E+00  0.0000E+00  0.0000E+00  0.0000E+00  0.0000E+00  0.0000E+00  0.0000E+00  0.3635E+02  0.6822E+01  0.0000E+00  0.0000E+00  0.0000E+00  0.0000E+00  0.0000E+00  0.0000E+00  0.0000E+00  0.0000E+00  0.0000E+00  0.0000E+00  0.0000E+00  0.0000E+00  0.0000E+00  0.0000E+00
REACH    3        0     4  0.1834E+01  0.7455E-01  0.7454E-01  0.1474E-04  0.0000E+00  0.6299E+04  0.6268E+04  0.1999E+05  0.4019E+01  0.4015E+01  0.1020E+01  0.1019E+01  0.2056E+02  0.2056E+02  0.0000E+00  0.1026E-01  0.0000E+00  0.0000E+00  0.1445E-01  0.1619E-01  0.4382E-01  0.3966E-01  0.2029E+06  0.2015E+06  0.1997E+04  0.1399E+04  0.0000E+00  0.0000E+00  0.0000E+00  0.0000E+00  0.0000E+00  0.0000E+00  0.0000E+00  0.0000E+00  0.0000E+00  0.0000E+00  0.0000E+00  0.0000E+00  0.0000E+00  0.0000E+00  0.0000E+00  0.0000E+00  0.0000E+00  0.2459E+02  0.1035E+01  0.0000E+00  0.0000E+00  0.0000E+00  0.0000E+00  0.0000E+00  0.0000E+00  0.0000E+00  0.0000E+00  0.0000E+00  0.0000E+00  0.0000E+00  0.0000E+00  0.0000E+00  0.0000E+00
REACH    1        0     5  0.5790E+01  0.1259E+00  0.1258E+00  0.1056E-03  0.0000E+00  0.4809E+03  0.5260E+02  0.1548E+03  0.9663E+00  0.9678E+00  0.2167E+00  0.2168E+00  0.6095E+01  0.6094E+01  0.1609E-01  0.4709E-01  0.0000E+00  0.0000E+00  0.5132E-02  0.7646E-02  0.9236E-03  0.6050E-03  0.4103E+04  0.4036E+04  0.3756E+04  0.3663E+04  0.0000E+00  0.0000E+00  0.0000E+00  0.0000E+00  0.0000E+00  0.0000E+00  0.0000E+00  0.0000E+00  0.0000E+00  0.0000E+00  0.0000E+00  0.0000E+00  0.0000E+00  0.0000E+00  0.0000E+00  0.0000E+00  0.0000E+00  0.7109E+01  0.2244E+00  0.0000E+00  0.0000E+00  0.0000E+00  0.0000E+00  0.0000E+00  0.0000E+00  0.0000E+00  0.0000E+00  0.0000E+00  0.0000E+00  0.0000E+00  0.0000E+00  0.0000E+00  0.0000E+00
REACH    2        0     5  0.2233E+01  0.4902E-01  0.4900E-01  0.3520E-04  0.0000E+00  0.1485E+03  0.1470E+03  0.9634E+03  0.6285E+00  0.6295E+00  0.1415E+00  0.1416E+00  0.4492E+00  0.4495E+00  0.0000E+00  0.8392E-02  0.0000E+00  0.0000E+00  0.2218E-02  0.3123E-02  0.7527E-03  0.5263E-03  0.1464E+04  0.1443E+04  0.1519E+04  0.1438E+04  0.0000E+00  0.0000E+00  0.0000E+00  0.0000E+00  0.0000E+00  0.0000E+00  0.0000E+00  0.0000E+00  0.0000E+00  0.0000E+00  0.0000E+00  0.0000E+00  0.0000E+00  0.0000E+00  0.0000E+00  0.0000E+00  0.0000E+00  0.1087E+01  0.1447E+00  0.0000E+00  0.0000E+00  0.0000E+00  0.0000E+00  0.0000E+00  0.0000E+00  0.0000E+00  0.0000E+00  0.0000E+00  0.0000E+00  0.0000E+00  0.0000E+00  0.0000E+00  0.0000E+00
REACH    3        0     5  0.1834E+01  0.3874E-01  0.3872E-01  0.2245E-04  0.0000E+00  0.1575E+03  0.1563E+03  0.1193E+04  0.9692E-01  0.9699E-01  0.2321E-01  0.2320E-01  0.5188E+01  0.5186E+01  0.0000E+00  0.7696E-02  0.0000E+00  0.0000E+00  0.5410E-03  0.9038E-03  0.1350E-03  0.9725E-04  0.1180E+04  0.1168E+04  0.1199E+04  0.1134E+04  0.0000E+00  0.0000E+00  0.0000E+00  0.0000E+00  0.0000E+00  0.0000E+00  0.0000E+00  0.0000E+00  0.0000E+00  0.0000E+00  0.0000E+00  0.0000E+00  0.0000E+00  0.0000E+00  0.0000E+00  0.0000E+00  0.0000E+00  0.5291E+01  0.2410E-01  0.0000E+00  0.0000E+00  0.0000E+00  0.0000E+00  0.0000E+00  0.0000E+00  0.0000E+00  0.0000E+00  0.0000E+00  0.0000E+00  0.0000E+00  0.0000E+00  0.0000E+00  0.0000E+00
REACH    1        0     6  0.5790E+01  0.8427E-01  0.8417E-01  0.1200E-03  0.0000E+00  0.9602E-07  0.3276E+02  0.1500E+03  0.8332E-05  0.0000E+00  0.1834E-04  0.0000E+00  0.1229E+01  0.1229E+01  0.1313E-01  0.3909E-01  0.0000E+00  0.0000E+00  0.5016E-05  0.0000E+00  0.6188E-12  0.0000E+00  0.0000E+00  0.0000E+00  0.2567E+04  0.2555E+04  0.0000E+00  0.0000E+00  0.0000E+00  0.0000E+00  0.0000E+00  0.0000E+00  0.0000E+00  0.0000E+00  0.0000E+00  0.0000E+00  0.0000E+00  0.0000E+00  0.0000E+00  0.0000E+00  0.0000E+00  0.0000E+00  0.0000E+00  0.1268E+01  0.0000E+00  0.0000E+00  0.0000E+00  0.0000E+00  0.0000E+00  0.0000E+00  0.0000E+00  0.0000E+00  0.0000E+00  0.0000E+00  0.0000E+00  0.0000E+00  0.0000E+00  0.0000E+00  0.0000E+00
REACH    2        0     6  0.2233E+01  0.4194E-01  0.4190E-01  0.3977E-04  0.0000E+00  0.9597E-07  0.0000E+00  0.0000E+00  0.9230E-05  0.0000E+00  0.1954E-04  0.0000E+00  0.1914E-01  0.1913E-01  0.0000E+00  0.9407E-02  0.0000E+00  0.0000E+00  0.6335E-05  0.0000E+00  0.6172E-12  0.0000E+00  0.0000E+00  0.0000E+00  0.1286E+04  0.1272E+04  0.0000E+00  0.0000E+00  0.0000E+00  0.0000E+00  0.0000E+00  0.0000E+00  0.0000E+00  0.0000E+00  0.0000E+00  0.0000E+00  0.0000E+00  0.0000E+00  0.0000E+00  0.0000E+00  0.0000E+00  0.0000E+00  0.0000E+00  0.2854E-01  0.0000E+00  0.0000E+00  0.0000E+00  0.0000E+00  0.0000E+00  0.0000E+00  0.0000E+00  0.0000E+00  0.0000E+00  0.0000E+00  0.0000E+00  0.0000E+00  0.0000E+00  0.0000E+00  0.0000E+00
REACH    3        0     6  0.1834E+01  0.1161E-01  0.1159E-01  0.2488E-04  0.0000E+00  0.2562E-06  0.0000E+00  0.0000E+00  0.7125E-05  0.0000E+00  0.1661E-04  0.2672E-05  0.1192E+01  0.1190E+01  0.0000E+00  0.3719E-02  0.0000E+00  0.0000E+00  0.5434E-05  0.0000E+00  0.2644E-11  0.0000E+00  0.0000E+00  0.0000E+00  0.3558E+03  0.3516E+03  0.0000E+00  0.0000E+00  0.0000E+00  0.0000E+00  0.0000E+00  0.0000E+00  0.0000E+00  0.0000E+00  0.0000E+00  0.0000E+00  0.0000E+00  0.0000E+00  0.0000E+00  0.0000E+00  0.0000E+00  0.0000E+00  0.0000E+00  0.1194E+01  0.2672E-05  0.0000E+00  0.0000E+00  0.0000E+00  0.0000E+00  0.0000E+00  0.0000E+00  0.0000E+00  0.0000E+00  0.0000E+00  0.0000E+00  0.0000E+00  0.0000E+00  0.0000E+00  0.0000E+00
REACH    1        0     7  0.5790E+01  0.6331E-01  0.6319E-01  0.1213E-03  0.0000E+00  0.9922E-07  0.1998E+02  0.1176E+03  0.5162E-05  0.0000E+00  0.3207E-04  0.0000E+00  0.3071E+00  0.3066E+00  0.7866E-02  0.2429E-01  0.0000E+00  0.0000E+00  0.5167E-05  0.0000E+00  0.3418E-12  0.0000E+00  0.0000E+00  0.0000E+00  0.2002E+04  0.1990E+04  0.0000E+00  0.0000E+00  0.0000E+00  0.0000E+00  0.0000E+00  0.0000E+00  0.0000E+00  0.0000E+00  0.0000E+00  0.0000E+00  0.0000E+00  0.0000E+00  0.0000E+00  0.0000E+00  0.0000E+00  0.0000E+00  0.0000E+00  0.3309E+00  0.0000E+00  0.0000E+00  0.0000E+00  0.0000E+00  0.0000E+00  0.0000E+00  0.0000E+00  0.0000E+00  0.0000E+00  0.0000E+00  0.0000E+00  0.0000E+00  0.0000E+00  0.0000E+00  0.0000E+00
REACH    2        0     7  0.2233E+01  0.3484E-01  0.3480E-01  0.4028E-04  0.0000E+00  0.9917E-07  0.0000E+00  0.0000E+00  0.6525E-05  0.0000E+00  0.1957E-04  0.0000E+00  0.4732E-03  0.4681E-03  0.0000E+00  0.5488E-02  0.0000E+00  0.0000E+00  0.6532E-05  0.0000E+00  0.3828E-12  0.0000E+00  0.0000E+00  0.0000E+00  0.1108E+04  0.1096E+04  0.0000E+00  0.0000E+00  0.0000E+00  0.0000E+00  0.0000E+00  0.0000E+00  0.0000E+00  0.0000E+00  0.0000E+00  0.0000E+00  0.0000E+00  0.0000E+00  0.0000E+00  0.0000E+00  0.0000E+00  0.0000E+00  0.0000E+00  0.5956E-02  0.0000E+00  0.0000E+00  0.0000E+00  0.0000E+00  0.0000E+00  0.0000E+00  0.0000E+00  0.0000E+00  0.0000E+00  0.0000E+00  0.0000E+00  0.0000E+00  0.0000E+00  0.0000E+00  0.0000E+00
REACH    3        0     7  0.1834E+01  0.4307E-02  0.4282E-02  0.2503E-04  0.0000E+00  0.2647E-06  0.0000E+00  0.0000E+00  0.5601E-05  0.0000E+00  0.1680E-04  0.1659E-04  0.3075E+00  0.3058E+00  0.0000E+00  0.2378E-02  0.0000E+00  0.0000E+00  0.5607E-05  0.0000E+00  0.5554E-11  0.0000E+00  0.0000E+00  0.0000E+00  0.1370E+03  0.1348E+03  0.0000E+00  0.0000E+00  0.0000E+00  0.0000E+00  0.0000E+00  0.0000E+00  0.0000E+00  0.0000E+00  0.0000E+00  0.0000E+00  0.0000E+00  0.0000E+00  0.0000E+00  0.0000E+00  0.0000E+00  0.0000E+00  0.0000E+00  0.3082E+00  0.1659E-04  0.0000E+00  0.0000E+00  0.0000E+00  0.0000E+00  0.0000E+00  0.0000E+00  0.0000E+00  0.0000E+00  0.0000E+00  0.0000E+00  0.0000E+00  0.0000E+00  0.0000E+00  0.0000E+00
REACH    1        0     8  0.5790E+01  0.4977E-01  0.4969E-01  0.8350E-04  0.0000E+00  0.9922E-07  0.1236E+02  0.9244E+02  0.5162E-05  0.0000E+00  0.3202E-04  0.0000E+00  0.2286E+00  0.2281E+00  0.8770E-02  0.2713E-01  0.0000E+00  0.3890E-05  0.5167E-05  0.0000E+00  0.4466E-12  0.0000E+00  0.0000E+00  0.0000E+00  0.1564E+04  0.1555E+04  0.0000E+00  0.0000E+00  0.0000E+00  0.0000E+00  0.0000E+00  0.0000E+00  0.0000E+00  0.0000E+00  0.0000E+00  0.0000E+00  0.0000E+00  0.0000E+00  0.0000E+00  0.0000E+00  0.0000E+00  0.0000E+00  0.0000E+00  0.2552E+00  0.0000E+00  0.0000E+00  0.0000E+00  0.0000E+00  0.0000E+00  0.0000E+00  0.0000E+00  0.0000E+00  0.0000E+00  0.0000E+00  0.0000E+00  0.0000E+00  0.0000E+00  0.0000E+00  0.0000E+00
REACH    2        0     8  0.2233E+01  0.2818E-01  0.2816E-01  0.2773E-04  0.0000E+00  0.9917E-07  0.0000E+00  0.0000E+00  0.6525E-05  0.0000E+00  0.1957E-04  0.0000E+00  0.2185E-01  0.2178E-01  0.0000E+00  0.6035E-02  0.0000E+00  0.0000E+00  0.6532E-05  0.0000E+00  0.4746E-12  0.0000E+00  0.0000E+00  0.0000E+00  0.8910E+03  0.8812E+03  0.0000E+00  0.0000E+00  0.0000E+00  0.0000E+00  0.0000E+00  0.0000E+00  0.0000E+00  0.0000E+00  0.0000E+00  0.0000E+00  0.0000E+00  0.0000E+00  0.0000E+00  0.0000E+00  0.0000E+00  0.0000E+00  0.0000E+00  0.2782E-01  0.0000E+00  0.0000E+00  0.0000E+00  0.0000E+00  0.0000E+00  0.0000E+00  0.0000E+00  0.0000E+00  0.0000E+00  0.0000E+00  0.0000E+00  0.0000E+00  0.0000E+00  0.0000E+00  0.0000E+00
REACH    3        0     8  0.1834E+01  0.3010E-02  0.2993E-02  0.1723E-04  0.0000E+00  0.2647E-06  0.0000E+00  0.0000E+00  0.5601E-05  0.0000E+00  0.1680E-04  0.1653E-04  0.1851E+00  0.1840E+00  0.0000E+00  0.2736E-02  0.0000E+00  0.0000E+00  0.5607E-05  0.0000E+00  0.7290E-11  0.0000E+00  0.0000E+00  0.0000E+00  0.9518E+02  0.9370E+02  0.0000E+00  0.0000E+00  0.0000E+00  0.0000E+00  0.0000E+00  0.0000E+00  0.0000E+00  0.0000E+00  0.0000E+00  0.0000E+00  0.0000E+00  0.0000E+00  0.0000E+00  0.0000E+00  0.0000E+00  0.0000E+00  0.0000E+00  0.1867E+00  0.1653E-04  0.0000E+00  0.0000E+00  0.0000E+00  0.0000E+00  0.0000E+00  0.0000E+00  0.0000E+00  0.0000E+00  0.0000E+00  0.0000E+00  0.0000E+00  0.0000E+00  0.0000E+00  0.0000E+00
REACH    1        0     9  0.5790E+01  0.3940E-01  0.3932E-01  0.8449E-04  0.0000E+00  0.1578E+03  0.7487E+01  0.7318E+02  0.2696E+00  0.2651E+00  0.6149E-01  0.6032E-01  0.3253E+00  0.3245E+00  0.9012E-02  0.2819E-01  0.1833E-06  0.1975E-04  0.1495E-02  0.2062E-02  0.8352E-03  0.0000E+00  0.2924E+04  0.2816E+04  0.1149E+04  0.1109E+04  0.0000E+00  0.0000E+00  0.0000E+00  0.0000E+00  0.0000E+00  0.0000E+00  0.0000E+00  0.0000E+00  0.0000E+00  0.0000E+00  0.0000E+00  0.0000E+00  0.0000E+00  0.0000E+00  0.0000E+00  0.0000E+00  0.0000E+00  0.6178E+00  0.6238E-01  0.0000E+00  0.0000E+00  0.0000E+00  0.0000E+00  0.0000E+00  0.0000E+00  0.0000E+00  0.0000E+00  0.0000E+00  0.0000E+00  0.0000E+00  0.0000E+00  0.0000E+00  0.0000E+00
REACH    2        0     9  0.2233E+01  0.2283E-01  0.2280E-01  0.2804E-04  0.0000E+00  0.6498E+02  0.6400E+02  0.9699E+03  0.1924E+00  0.1905E+00  0.4427E-01  0.4378E-01  0.9464E-01  0.9449E-01  0.0000E+00  0.5873E-02  0.0000E+00  0.0000E+00  0.7802E-03  0.1002E-02  0.1016E-02  0.3778E-03  0.1045E+04  0.1022E+04  0.6929E+03  0.6530E+03  0.0000E+00  0.0000E+00  0.0000E+00  0.0000E+00  0.0000E+00  0.0000E+00  0.0000E+00  0.0000E+00  0.0000E+00  0.0000E+00  0.0000E+00  0.0000E+00  0.0000E+00  0.0000E+00  0.0000E+00  0.0000E+00  0.0000E+00  0.2909E+00  0.4478E-01  0.0000E+00  0.0000E+00  0.0000E+00  0.0000E+00  0.0000E+00  0.0000E+00  0.0000E+00  0.0000E+00  0.0000E+00  0.0000E+00  0.0000E+00  0.0000E+00  0.0000E+00  0.0000E+00
REACH    3        0     9  0.1834E+01  0.2141E-02  0.2124E-02  0.1742E-04  0.0000E+00  0.2180E+02  0.2120E+02  0.1927E+04  0.1750E-01  0.1713E-01  0.4233E-02  0.4138E-02  0.1453E+00  0.1442E+00  0.0000E+00  0.3138E-02  0.0000E+00  0.1833E-06  0.9760E-04  0.1785E-03  0.6083E-03  0.0000E+00  0.6938E+03  0.6643E+03  0.6408E+02  0.5695E+02  0.0000E+00  0.0000E+00  0.0000E+00  0.0000E+00  0.0000E+00  0.0000E+00  0.0000E+00  0.0000E+00  0.0000E+00  0.0000E+00  0.0000E+00  0.0000E+00  0.0000E+00  0.0000E+00  0.0000E+00  0.0000E+00  0.0000E+00  0.1644E+00  0.4317E-02  0.0000E+00  0.0000E+00  0.0000E+00  0.0000E+00  0.0000E+00  0.0000E+00  0.0000E+00  0.0000E+00  0.0000E+00  0.0000E+00  0.0000E+00  0.0000E+00  0.0000E+00  0.0000E+00
REACH    1        0    10  0.5790E+01  0.4254E-01  0.4249E-01  0.4885E-04  0.0000E+00  0.7071E+04  0.9684E+01  0.7394E+02  0.1074E+02  0.1069E+02  0.2434E+01  0.2419E+01  0.1820E+01  0.1808E+01  0.1632E-01  0.5183E-01  0.0000E+00  0.6418E-04  0.3912E-01  0.5352E-01  0.1238E+00  0.5963E-01  0.3479E+06  0.3414E+06  0.8937E+03  0.7194E+03  0.0000E+00  0.0000E+00  0.0000E+00  0.0000E+00  0.0000E+00  0.0000E+00  0.0000E+00  0.0000E+00  0.0000E+00  0.0000E+00  0.0000E+00  0.0000E+00  0.0000E+00  0.0000E+00  0.0000E+00  0.0000E+00  0.0000E+00  0.1255E+02  0.2472E+01  0.0000E+00  0.0000E+00  0.0000E+00  0.0000E+00  0.0000E+00  0.0000E+00  0.0000E+00  0.0000E+00  0.0000E+00  0.0000E+00  0.0000E+00  0.0000E+00  0.0000E+00  0.0000E+00
REACH    2        0    10  0.2233E+01  0.2265E-01  0.2263E-01  0.1623E-04  0.0000E+00  0.2494E+04  0.2468E+04  0.1464E+05  0.7480E+01  0.7460E+01  0.1704E+01  0.1698E+01  0.6741E+00  0.6712E+00  0.0000E+00  0.1249E-01  0.0000E+00  0.0000E+00  0.2019E-01  0.2620E-01  0.1270E+00  0.7361E-01  0.1185E+06  0.1169E+06  0.6266E+03  0.4267E+03  0.0000E+00  0.0000E+00  0.0000E+00  0.0000E+00  0.0000E+00  0.0000E+00  0.0000E+00  0.0000E+00  0.0000E+00  0.0000E+00  0.0000E+00  0.0000E+00  0.0000E+00  0.0000E+00  0.0000E+00  0.0000E+00  0.0000E+00  0.8144E+01  0.1724E+01  0.0000E+00  0.0000E+00  0.0000E+00  0.0000E+00  0.0000E+00  0.0000E+00  0.0000E+00  0.0000E+00  0.0000E+00  0.0000E+00  0.0000E+00  0.0000E+00  0.0000E+00  0.0000E+00
REACH    3        0    10  0.1834E+01  0.5048E-02  0.5037E-02  0.1008E-04  0.0000E+00  0.1716E+04  0.1698E+04  0.1571E+05  0.7780E+00  0.7752E+00  0.1924E+00  0.1914E+00  0.6012E+00  0.5983E+00  0.0000E+00  0.3834E-02  0.0000E+00  0.0000E+00  0.3065E-02  0.4290E-02  0.2752E-01  0.8581E-02  0.9787E+05  0.9657E+05  0.1150E+03  0.6541E+02  0.0000E+00  0.0000E+00  0.0000E+00  0.0000E+00  0.0000E+00  0.0000E+00  0.0000E+00  0.0000E+00  0.0000E+00  0.0000E+00  0.0000E+00  0.0000E+00  0.0000E+00  0.0000E+00  0.0000E+00  0.0000E+00  0.0000E+00  0.1377E+01  0.1957E+00  0.0000E+00  0.0000E+00  0.0000E+00  0.0000E+00  0.0000E+00  0.0000E+00  0.0000E+00  0.0000E+00  0.0000E+00  0.0000E+00  0.0000E+00  0.0000E+00  0.0000E+00  0.0000E+00
REACH    1        0    11  0.5790E+01  0.9952E-01  0.9949E-01  0.3610E-04  0.0000E+00  0.4163E+05  0.4553E+02  0.1282E+03  0.7021E+02  0.7005E+02  0.1562E+02  0.1557E+02  0.4128E+02  0.4124E+02  0.4391E-01  0.1275E+00  0.0000E+00  0.3688E-04  0.1989E+00  0.2449E+00  0.1608E+01  0.1155E+01  0.2312E+07  0.2285E+07  0.1192E+04  0.7723E+03  0.0000E+00  0.0000E+00  0.0000E+00  0.0000E+00  0.0000E+00  0.0000E+00  0.0000E+00  0.0000E+00  0.0000E+00  0.0000E+00  0.0000E+00  0.0000E+00  0.0000E+00  0.0000E+00  0.0000E+00  0.0000E+00  0.0000E+00  0.1114E+03  0.1581E+02  0.0000E+00  0.0000E+00  0.0000E+00  0.0000E+00  0.0000E+00  0.0000E+00  0.0000E+00  0.0000E+00  0.0000E+00  0.0000E+00  0.0000E+00  0.0000E+00  0.0000E+00  0.0000E+00
REACH    2        0    11  0.2233E+01  0.4272E-01  0.4270E-01  0.1201E-04  0.0000E+00  0.1263E+05  0.1254E+05  0.3778E+05  0.4784E+02  0.4777E+02  0.1068E+02  0.1066E+02  0.1506E+02  0.1505E+02  0.0000E+00  0.3666E-01  0.0000E+00  0.0000E+00  0.1072E+00  0.1284E+00  0.1336E+01  0.1022E+01  0.7111E+06  0.7049E+06  0.8384E+03  0.3964E+03  0.0000E+00  0.0000E+00  0.0000E+00  0.0000E+00  0.0000E+00  0.0000E+00  0.0000E+00  0.0000E+00  0.0000E+00  0.0000E+00  0.0000E+00  0.0000E+00  0.0000E+00  0.0000E+00  0.0000E+00  0.0000E+00  0.0000E+00  0.6285E+02  0.1079E+02  0.0000E+00  0.0000E+00  0.0000E+00  0.0000E+00  0.0000E+00  0.0000E+00  0.0000E+00  0.0000E+00  0.0000E+00  0.0000E+00  0.0000E+00  0.0000E+00  0.0000E+00  0.0000E+00
REACH    3        0    11  0.1834E+01  0.2418E-01  0.2416E-01  0.7575E-05  0.0000E+00  0.1407E+05  0.1399E+05  0.4456E+05  0.6123E+01  0.6113E+01  0.1429E+01  0.1425E+01  0.1118E+02  0.1116E+02  0.0000E+00  0.7252E-02  0.0000E+00  0.0000E+00  0.2085E-01  0.2429E-01  0.2017E+00  0.1346E+00  0.8303E+06  0.8246E+06  0.3752E+03  0.1603E+03  0.0000E+00  0.0000E+00  0.0000E+00  0.0000E+00  0.0000E+00  0.0000E+00  0.0000E+00  0.0000E+00  0.0000E+00  0.0000E+00  0.0000E+00  0.0000E+00  0.0000E+00  0.0000E+00  0.0000E+00  0.0000E+00  0.0000E+00  0.1728E+02  0.1450E+01  0.0000E+00  0.0000E+00  0.0000E+00  0.0000E+00  0.0000E+00  0.0000E+00  0.0000E+00  0.0000E+00  0.0000E+00  0.0000E+00  0.0000E+00  0.0000E+00  0.0000E+00  0.0000E+00
REACH    1        0    12  0.5790E+01  0.8814E-01  0.8810E-01  0.3432E-04  0.0000E+00  0.2658E+05  0.3985E+02  0.1261E+03  0.4443E+02  0.4434E+02  0.9695E+01  0.9665E+01  0.3245E+02  0.3244E+02  0.3063E-01  0.8978E-01  0.0000E+00  0.2852E-04  0.1370E+00  0.1648E+00  0.9228E+00  0.6737E+00  0.1537E+07  0.1519E+07  0.1393E+04  0.1095E+04  0.0000E+00  0.0000E+00  0.0000E+00  0.0000E+00  0.0000E+00  0.0000E+00  0.0000E+00  0.0000E+00  0.0000E+00  0.0000E+00  0.0000E+00  0.0000E+00  0.0000E+00  0.0000E+00  0.0000E+00  0.0000E+00  0.0000E+00  0.7687E+02  0.9830E+01  0.0000E+00  0.0000E+00  0.0000E+00  0.0000E+00  0.0000E+00  0.0000E+00  0.0000E+00  0.0000E+00  0.0000E+00  0.0000E+00  0.0000E+00  0.0000E+00  0.0000E+00  0.0000E+00
REACH    2        0    12  0.2233E+01  0.3702E-01  0.3701E-01  0.1137E-04  0.0000E+00  0.7857E+04  0.7806E+04  0.1973E+05  0.3018E+02  0.3014E+02  0.6614E+01  0.6599E+01  0.1014E+02  0.1014E+02  0.0000E+00  0.2388E-01  0.0000E+00  0.0000E+00  0.7424E-01  0.8759E-01  0.7748E+00  0.5919E+00  0.4665E+06  0.4627E+06  0.8057E+03  0.5273E+03  0.0000E+00  0.0000E+00  0.0000E+00  0.0000E+00  0.0000E+00  0.0000E+00  0.0000E+00  0.0000E+00  0.0000E+00  0.0000E+00  0.0000E+00  0.0000E+00  0.0000E+00  0.0000E+00  0.0000E+00  0.0000E+00  0.0000E+00  0.4030E+02  0.6687E+01  0.0000E+00  0.0000E+00  0.0000E+00  0.0000E+00  0.0000E+00  0.0000E+00  0.0000E+00  0.0000E+00  0.0000E+00  0.0000E+00  0.0000E+00  0.0000E+00  0.0000E+00  0.0000E+00
REACH    3        0    12  0.1834E+01  0.2249E-01  0.2248E-01  0.7162E-05  0.0000E+00  0.9435E+04  0.9387E+04  0.2586E+05  0.3975E+01  0.3968E+01  0.8649E+00  0.8628E+00  0.1190E+02  0.1189E+02  0.0000E+00  0.6753E-02  0.0000E+00  0.0000E+00  0.1495E-01  0.1728E-01  0.9509E-01  0.6939E-01  0.5717E+06  0.5679E+06  0.4052E+03  0.2462E+03  0.0000E+00  0.0000E+00  0.0000E+00  0.0000E+00  0.0000E+00  0.0000E+00  0.0000E+00  0.0000E+00  0.0000E+00  0.0000E+00  0.0000E+00  0.0000E+00  0.0000E+00  0.0000E+00  0.0000E+00  0.0000E+00  0.0000E+00  0.1587E+02  0.8801E+00  0.0000E+00  0.0000E+00  0.0000E+00  0.0000E+00  0.0000E+00  0.0000E+00  0.0000E+00  0.0000E+00  0.0000E+00  0.0000E+00  0.0000E+00  0.0000E+00  0.0000E+00  0.0000E+00
REACH    1        0  1982  0.5790E+01  0.1393E+00  0.1392E+00  0.6967E-04  0.0000E+00  0.4567E+06  0.9752E+03  0.1490E+03  0.2679E+05  0.2677E+05  0.5957E+04  0.5947E+04  0.6537E+03  0.6529E+03  0.8616E+01  0.2580E+02  0.9316E-04  0.9176E-02  0.8042E+01  0.1699E+02  0.6982E+03  0.6088E+03  0.2393E+08  0.2372E+08  0.2552E+05  0.2014E+05  0.0000E+00  0.0000E+00  0.0000E+00  0.0000E+00  0.0000E+00  0.0000E+00  0.0000E+00  0.0000E+00  0.0000E+00  0.0000E+00  0.0000E+00  0.0000E+00  0.0000E+00  0.0000E+00  0.0000E+00  0.0000E+00  0.0000E+00  0.2745E+05  0.5964E+04  0.0000E+00  0.0000E+00  0.0000E+00  0.0000E+00  0.0000E+00  0.0000E+00  0.0000E+00  0.0000E+00  0.0000E+00  0.0000E+00  0.0000E+00  0.0000E+00  0.0000E+00  0.0000E+00
REACH    2        0  1982  0.2233E+01  0.5445E-01  0.5443E-01  0.2318E-04  0.0000E+00  0.1357E+06  0.1350E+06  0.2138E+05  0.1152E+05  0.1151E+05  0.2558E+04  0.2555E+04  0.1835E+03  0.1833E+03  0.0000E+00  0.5508E+01  0.0000E+00  0.6858E-04  0.2448E+01  0.4804E+01  0.3345E+03  0.2972E+03  0.7786E+07  0.7733E+07  0.1422E+05  0.8971E+04  0.0000E+00  0.0000E+00  0.0000E+00  0.0000E+00  0.0000E+00  0.0000E+00  0.0000E+00  0.0000E+00  0.0000E+00  0.0000E+00  0.0000E+00  0.0000E+00  0.0000E+00  0.0000E+00  0.0000E+00  0.0000E+00  0.0000E+00  0.1170E+05  0.2560E+04  0.0000E+00  0.0000E+00  0.0000E+00  0.0000E+00  0.0000E+00  0.0000E+00  0.0000E+00  0.0000E+00  0.0000E+00  0.0000E+00  0.0000E+00  0.0000E+00  0.0000E+00  0.0000E+00
REACH    3        0  1982  0.1834E+01  0.4196E-01  0.4195E-01  0.1466E-04  0.0000E+00  0.1604E+06  0.1598E+06  0.2450E+05  0.8330E+04  0.8325E+04  0.1855E+04  0.1853E+04  0.2826E+03  0.2825E+03  0.0000E+00  0.3107E+01  0.0000E+00  0.2458E-04  0.9415E+00  0.2090E+01  0.2325E+03  0.2116E+03  0.8051E+07  0.8010E+07  0.1064E+05  0.5247E+04  0.0000E+00  0.0000E+00  0.0000E+00  0.0000E+00  0.0000E+00  0.0000E+00  0.0000E+00  0.0000E+00  0.0000E+00  0.0000E+00  0.0000E+00  0.0000E+00  0.0000E+00  0.0000E+00  0.0000E+00  0.0000E+00  0.0000E+00  0.8611E+04  0.1855E+04  0.0000E+00  0.0000E+00  0.0000E+00  0.0000E+00  0.0000E+00  0.0000E+00  0.0000E+00  0.0000E+00  0.0000E+00  0.0000E+00  0.0000E+00  0.0000E+00  0.0000E+00  0.0000E+00
REACH    1        0     1  0.5790E+01  0.1754E+00  0.1753E+00  0.3425E-04  0.0000E+00  0.6088E+05  0.1102E+03  0.1691E+03  0.1430E+05  0.1428E+05  0.3128E+04  0.3121E+04  0.4626E+02  0.4598E+02  0.3659E+01  0.1111E+02  0.4845E-04  0.4927E-02  0.2198E+01  0.6202E+01  0.4075E+03  0.3641E+03  0.3330E+07  0.3296E+07  0.1524E+04  0.8432E+03  0.0000E+00  0.0000E+00  0.0000E+00  0.0000E+00  0.0000E+00  0.0000E+00  0.0000E+00  0.0000E+00  0.0000E+00  0.0000E+00  0.0000E+00  0.0000E+00  0.0000E+00  0.0000E+00  0.0000E+00  0.0000E+00  0.0000E+00  0.1433E+05  0.3127E+04  0.0000E+00  0.0000E+00  0.0000E+00  0.0000E+00  0.0000E+00  0.0000E+00  0.0000E+00  0.0000E+00  0.0000E+00  0.0000E+00  0.0000E+00  0.0000E+00  0.0000E+00  0.0000E+00
REACH    2        0     1  0.2233E+01  0.6544E-01  0.6542E-01  0.1132E-04  0.0000E+00  0.1800E+05  0.1789E+05  0.4243E+05  0.4901E+04  0.4896E+04  0.1072E+04  0.1071E+04  0.1371E+02  0.1366E+02  0.0000E+00  0.1957E+01  0.0000E+00  0.2944E-04  0.4349E+00  0.1212E+01  0.1500E+03  0.1357E+03  0.1058E+07  0.1050E+07  0.1046E+04  0.3467E+03  0.0000E+00  0.0000E+00  0.0000E+00  0.0000E+00  0.0000E+00  0.0000E+00  0.0000E+00  0.0000E+00  0.0000E+00  0.0000E+00  0.0000E+00  0.0000E+00  0.0000E+00  0.0000E+00  0.0000E+00  0.0000E+00  0.0000E+00  0.4912E+04  0.1072E+04  0.0000E+00  0.0000E+00  0.0000E+00  0.0000E+00  0.0000E+00  0.0000E+00  0.0000E+00  0.0000E+00  0.0000E+00  0.0000E+00  0.0000E+00  0.0000E+00  0.0000E+00  0.0000E+00
REACH    3        0     1  0.1834E+01  0.5758E-01  0.5757E-01  0.7337E-05  0.0000E+00  0.2160E+05  0.2150E+05  0.5300E+05  0.4856E+04  0.4853E+04  0.1063E+04  0.1062E+04  0.1848E+02  0.1844E+02  0.0000E+00  0.1702E+01  0.0000E+00  0.1901E-04  0.2451E+00  0.7165E+00  0.1459E+03  0.1353E+03  0.1155E+07  0.1148E+07  0.9594E+03  0.3213E+03  0.0000E+00  0.0000E+00  0.0000E+00  0.0000E+00  0.0000E+00  0.0000E+00  0.0000E+00  0.0000E+00  0.0000E+00  0.0000E+00  0.0000E+00  0.0000E+00  0.0000E+00  0.0000E+00  0.0000E+00  0.0000E+00  0.0000E+00  0.4873E+04  0.1062E+04  0.0000E+00  0.0000E+00  0.0000E+00  0.0000E+00  0.0000E+00  0.0000E+00  0.0000E+00  0.0000E+00  0.0000E+00  0.0000E+00  0.0000E+00  0.0000E+00  0.0000E+00  0.0000E+00
REACH    1        0     2  0.5790E+01  0.3506E+00  0.3505E+00  0.5758E-04  0.0000E+00  0.2142E+06  0.3026E+03  0.2086E+03  0.3185E+04  0.3184E+04  0.7151E+03  0.7145E+03  0.3497E+02  0.3493E+02  0.1147E+01  0.3249E+01  0.5021E-05  0.7499E-03  0.1546E+01  0.2459E+01  0.1037E+03  0.9706E+02  0.1322E+08  0.1315E+08  0.2412E+04  0.1141E+04  0.0000E+00  0.0000E+00  0.0000E+00  0.0000E+00  0.0000E+00  0.0000E+00  0.0000E+00  0.0000E+00  0.0000E+00  0.0000E+00  0.0000E+00  0.0000E+00  0.0000E+00  0.0000E+00  0.0000E+00  0.0000E+00  0.0000E+00  0.3222E+04  0.7169E+03  0.0000E+00  0.0000E+00  0.0000E+00  0.0000E+00  0.0000E+00  0.0000E+00  0.0000E+00  0.0000E+00  0.0000E+00  0.0000E+00  0.0000E+00  0.0000E+00  0.0000E+00  0.0000E+00
REACH    2        0     2  0.2233E+01  0.1291E+00  0.1291E+00  0.1905E-04  0.0000E+00  0.6315E+05  0.6294E+05  0.3070E+05  0.1689E+04  0.1688E+04  0.3758E+03  0.3755E+03  0.9868E+01  0.9851E+01  0.0000E+00  0.8021E+00  0.0000E+00  0.5021E-05  0.6177E+00  0.9694E+00  0.5870E+02  0.5531E+02  0.4162E+07  0.4145E+07  0.1679E+04  0.4894E+03  0.0000E+00  0.0000E+00  0.0000E+00  0.0000E+00  0.0000E+00  0.0000E+00  0.0000E+00  0.0000E+00  0.0000E+00  0.0000E+00  0.0000E+00  0.0000E+00  0.0000E+00  0.0000E+00  0.0000E+00  0.0000E+00  0.0000E+00  0.1699E+04  0.3765E+03  0.0000E+00  0.0000E+00  0.0000E+00  0.0000E+00  0.0000E+00  0.0000E+00  0.0000E+00  0.0000E+00  0.0000E+00  0.0000E+00  0.0000E+00  0.0000E+00  0.0000E+00  0.0000E+00
REACH    3        0     2  0.1834E+01  0.1193E+00  0.1193E+00  0.1254E-04  0.0000E+00  0.7588E+05  0.7569E+05  0.3289E+05  0.8259E+03  0.8257E+03  0.1872E+03  0.1871E+03  0.1495E+02  0.1495E+02  0.0000E+00  0.3451E+00  0.0000E+00  0.0000E+00  0.1857E+00  0.2975E+00  0.2701E+02  0.2590E+02  0.4572E+07  0.4558E+07  0.1724E+04  0.5595E+03  0.0000E+00  0.0000E+00  0.0000E+00  0.0000E+00  0.0000E+00  0.0000E+00  0.0000E+00  0.0000E+00  0.0000E+00  0.0000E+00  0.0000E+00  0.0000E+00  0.0000E+00  0.0000E+00  0.0000E+00  0.0000E+00  0.0000E+00  0.8410E+03  0.1874E+03  0.0000E+00  0.0000E+00  0.0000E+00  0.0000E+00  0.0000E+00  0.0000E+00  0.0000E+00  0.0000E+00  0.0000E+00  0.0000E+00  0.0000E+00  0.0000E+00  0.0000E+00  0.0000E+00
REACH    1        0     3  0.5790E+01  0.3433E+00  0.3431E+00  0.7419E-04  0.0000E+00  0.1561E+06  0.2780E+03  0.2491E+03  0.2794E+03  0.2789E+03  0.6449E+02  0.6432E+02  0.4209E+02  0.4209E+02  0.1177E+00  0.3256E+00  0.0000E+00  0.7011E-04  0.7231E+00  0.8376E+00  0.6894E+01  0.6075E+01  0.8429E+07  0.8344E+07  0.2637E+04  0.1410E+04  0.0000E+00  0.0000E+00  0.0000E+00  0.0000E+00  0.0000E+00  0.0000E+00  0.0000E+00  0.0000E+00  0.0000E+00  0.0000E+00  0.0000E+00  0.0000E+00  0.0000E+00  0.0000E+00  0.0000E+00  0.0000E+00  0.0000E+00  0.3213E+03  0.6516E+02  0.0000E+00  0.0000E+00  0.0000E+00  0.0000E+00  0.0000E+00  0.0000E+00  0.0000E+00  0.0000E+00  0.0000E+00  0.0000E+00  0.0000E+00  0.0000E+00  0.0000E+00  0.0000E+00
REACH    2        0     3  0.2233E+01  0.1232E+00  0.1231E+00  0.2502E-04  0.0000E+00  0.4608E+05  0.4586E+05  0.6360E+05  0.1878E+03  0.1876E+03  0.4248E+02  0.4240E+02  0.1163E+02  0.1163E+02  0.0000E+00  0.9521E-01  0.0000E+00  0.0000E+00  0.3949E+00  0.4551E+00  0.5133E+01  0.4564E+01  0.2731E+07  0.2711E+07  0.1818E+04  0.4944E+03  0.0000E+00  0.0000E+00  0.0000E+00  0.0000E+00  0.0000E+00  0.0000E+00  0.0000E+00  0.0000E+00  0.0000E+00  0.0000E+00  0.0000E+00  0.0000E+00  0.0000E+00  0.0000E+00  0.0000E+00  0.0000E+00  0.0000E+00  0.1993E+03  0.4285E+02  0.0000E+00  0.0000E+00  0.0000E+00  0.0000E+00  0.0000E+00  0.0000E+00  0.0000E+00  0.0000E+00  0.0000E+00  0.0000E+00  0.0000E+00  0.0000E+00  0.0000E+00  0.0000E+00
REACH    3        0     3  0.1834E+01  0.1207E+00  0.1207E+00  0.1633E-04  0.0000E+00  0.5536E+05  0.5515E+05  0.7036E+05  0.2591E+02  0.2588E+02  0.6826E+01  0.6816E+01  0.1842E+02  0.1842E+02  0.0000E+00  0.2250E-01  0.0000E+00  0.0000E+00  0.8694E-01  0.9439E-01  0.5938E+00  0.5486E+00  0.2822E+07  0.2806E+07  0.2073E+04  0.6094E+03  0.0000E+00  0.0000E+00  0.0000E+00  0.0000E+00  0.0000E+00  0.0000E+00  0.0000E+00  0.0000E+00  0.0000E+00  0.0000E+00  0.0000E+00  0.0000E+00  0.0000E+00  0.0000E+00  0.0000E+00  0.0000E+00  0.0000E+00  0.4432E+02  0.6910E+01  0.0000E+00  0.0000E+00  0.0000E+00  0.0000E+00  0.0000E+00  0.0000E+00  0.0000E+00  0.0000E+00  0.0000E+00  0.0000E+00  0.0000E+00  0.0000E+00  0.0000E+00  0.0000E+00
REACH    1        0     4  0.5790E+01  0.2005E+00  0.2006E+00  0.6904E-04  0.0000E+00  0.3498E+05  0.1143E+03  0.2079E+03  0.8651E+02  0.8649E+02  0.1872E+02  0.1870E+02  0.2398E+02  0.2397E+02  0.4757E-01  0.1375E+00  0.0000E+00  0.0000E+00  0.2257E+00  0.2697E+00  0.1450E+01  0.1183E+01  0.1509E+07  0.1504E+07  0.3224E+04  0.2552E+04  0.0000E+00  0.0000E+00  0.0000E+00  0.0000E+00  0.0000E+00  0.0000E+00  0.0000E+00  0.0000E+00  0.0000E+00  0.0000E+00  0.0000E+00  0.0000E+00  0.0000E+00  0.0000E+00  0.0000E+00  0.0000E+00  0.0000E+00  0.1106E+03  0.1897E+02  0.0000E+00  0.0000E+00  0.0000E+00  0.0000E+00  0.0000E+00  0.0000E+00  0.0000E+00  0.0000E+00  0.0000E+00  0.0000E+00  0.0000E+00  0.0000E+00  0.0000E+00  0.0000E+00
REACH    2        0     4  0.2233E+01  0.6899E-01  0.6900E-01  0.2320E-04  0.0000E+00  0.1033E+05  0.1027E+05  0.2720E+05  0.5733E+02  0.5731E+02  0.1243E+02  0.1241E+02  0.6102E+01  0.6099E+01  0.0000E+00  0.3462E-01  0.0000E+00  0.0000E+00  0.1193E+00  0.1418E+00  0.1127E+01  0.9315E+00  0.4996E+06  0.4985E+06  0.1609E+04  0.8650E+03  0.0000E+00  0.0000E+00  0.0000E+00  0.0000E+00  0.0000E+00  0.0000E+00  0.0000E+00  0.0000E+00  0.0000E+00  0.0000E+00  0.0000E+00  0.0000E+00  0.0000E+00  0.0000E+00  0.0000E+00  0.0000E+00  0.0000E+00  0.6345E+02  0.1256E+02  0.0000E+00  0.0000E+00  0.0000E+00  0.0000E+00  0.0000E+00  0.0000E+00  0.0000E+00  0.0000E+00  0.0000E+00  0.0000E+00  0.0000E+00  0.0000E+00  0.0000E+00  0.0000E+00
REACH    3        0     4  0.1834E+01  0.7525E-01  0.7526E-01  0.1498E-04  0.0000E+00  0.1241E+05  0.1236E+05  0.3033E+05  0.8384E+01  0.8382E+01  0.1812E+01  0.1811E+01  0.1156E+02  0.1156E+02  0.0000E+00  0.1295E-01  0.0000E+00  0.0000E+00  0.2641E-01  0.2932E-01  0.1301E+00  0.1157E+00  0.4853E+06  0.4849E+06  0.1874E+04  0.1025E+04  0.0000E+00  0.0000E+00  0.0000E+00  0.0000E+00  0.0000E+00  0.0000E+00  0.0000E+00  0.0000E+00  0.0000E+00  0.0000E+00  0.0000E+00  0.0000E+00  0.0000E+00  0.0000E+00  0.0000E+00  0.0000E+00  0.0000E+00  0.1996E+02  0.1840E+01  0.0000E+00  0.0000E+00  0.0000E+00  0.0000E+00  0.0000E+00  0.0000E+00  0.0000E+00  0.0000E+00  0.0000E+00  0.0000E+00  0.0000E+00  0.0000E+00  0.0000E+00  0.0000E+00
REACH    1        0     5  0.5790E+01  0.1197E+00  0.1196E+00  0.9166E-04  0.0000E+00  0.1730E+03  0.4752E+02  0.1471E+03  0.2357E+00  0.2353E+00  0.5086E-01  0.5072E-01  0.4398E+01  0.4399E+01  0.1881E-01  0.5463E-01  0.0000E+00  0.0000E+00  0.1400E-02  0.2415E-02  0.1048E-03  0.5221E-04  0.5716E+03  0.5615E+03  0.3540E+04  0.3480E+04  0.0000E+00  0.0000E+00  0.0000E+00  0.0000E+00  0.0000E+00  0.0000E+00  0.0000E+00  0.0000E+00  0.0000E+00  0.0000E+00  0.0000E+00  0.0000E+00  0.0000E+00  0.0000E+00  0.0000E+00  0.0000E+00  0.0000E+00  0.4689E+01  0.5313E-01  0.0000E+00  0.0000E+00  0.0000E+00  0.0000E+00  0.0000E+00  0.0000E+00  0.0000E+00  0.0000E+00  0.0000E+00  0.0000E+00  0.0000E+00  0.0000E+00  0.0000E+00  0.0000E+00
REACH    2        0     5  0.2233E+01  0.4463E-01  0.4460E-01  0.3012E-04  0.0000E+00  0.5194E+02  0.5134E+02  0.3797E+03  0.1414E+00  0.1411E+00  0.3054E-01  0.3045E-01  0.7314E+00  0.7320E+00  0.0000E+00  0.1086E-01  0.0000E+00  0.0000E+00  0.5113E-03  0.8333E-03  0.8881E-04  0.5352E-04  0.2063E+03  0.2029E+03  0.1368E+04  0.1303E+04  0.0000E+00  0.0000E+00  0.0000E+00  0.0000E+00  0.0000E+00  0.0000E+00  0.0000E+00  0.0000E+00  0.0000E+00  0.0000E+00  0.0000E+00  0.0000E+00  0.0000E+00  0.0000E+00  0.0000E+00  0.0000E+00  0.0000E+00  0.8840E+00  0.3128E-01  0.0000E+00  0.0000E+00  0.0000E+00  0.0000E+00  0.0000E+00  0.0000E+00  0.0000E+00  0.0000E+00  0.0000E+00  0.0000E+00  0.0000E+00  0.0000E+00  0.0000E+00  0.0000E+00
REACH    3        0     5  0.1834E+01  0.4055E-01  0.4053E-01  0.1959E-04  0.0000E+00  0.6004E+02  0.5962E+02  0.4145E+03  0.2967E-01  0.2966E-01  0.6417E-02  0.6396E-02  0.2910E+01  0.2910E+01  0.0000E+00  0.7946E-02  0.0000E+00  0.0000E+00  0.1468E-03  0.2891E-03  0.1706E-04  0.8786E-05  0.1608E+03  0.1592E+03  0.1242E+04  0.1178E+04  0.0000E+00  0.0000E+00  0.0000E+00  0.0000E+00  0.0000E+00  0.0000E+00  0.0000E+00  0.0000E+00  0.0000E+00  0.0000E+00  0.0000E+00  0.0000E+00  0.0000E+00  0.0000E+00  0.0000E+00  0.0000E+00  0.0000E+00  0.2948E+01  0.6685E-02  0.0000E+00  0.0000E+00  0.0000E+00  0.0000E+00  0.0000E+00  0.0000E+00  0.0000E+00  0.0000E+00  0.0000E+00  0.0000E+00  0.0000E+00  0.0000E+00  0.0000E+00  0.0000E+00
REACH    1        0     6  0.5790E+01  0.7915E-01  0.7907E-01  0.1007E-03  0.0000E+00  0.9602E-07  0.2843E+02  0.1386E+03  0.5151E-05  0.0000E+00  0.1660E-04  0.0000E+00  0.4673E+00  0.4674E+00  0.1011E-01  0.3028E-01  0.0000E+00  0.0000E+00  0.5000E-05  0.0000E+00  0.2837E-12  0.0000E+00  0.0000E+00  0.0000E+00  0.2392E+04  0.2381E+04  0.0000E+00  0.0000E+00  0.0000E+00  0.0000E+00  0.0000E+00  0.0000E+00  0.0000E+00  0.0000E+00  0.0000E+00  0.0000E+00  0.0000E+00  0.0000E+00  0.0000E+00  0.0000E+00  0.0000E+00  0.0000E+00  0.0000E+00  0.4977E+00  0.0000E+00  0.0000E+00  0.0000E+00  0.0000E+00  0.0000E+00  0.0000E+00  0.0000E+00  0.0000E+00  0.0000E+00  0.0000E+00  0.0000E+00  0.0000E+00  0.0000E+00  0.0000E+00  0.0000E+00
REACH    2        0     6  0.2233E+01  0.3866E-01  0.3863E-01  0.3336E-04  0.0000E+00  0.9597E-07  0.0000E+00  0.0000E+00  0.6447E-05  0.0000E+00  0.1896E-04  0.0000E+00  0.3179E-01  0.3179E-01  0.0000E+00  0.6039E-02  0.0000E+00  0.0000E+00  0.6321E-05  0.0000E+00  0.3368E-12  0.0000E+00  0.0000E+00  0.0000E+00  0.1177E+04  0.1164E+04  0.0000E+00  0.0000E+00  0.0000E+00  0.0000E+00  0.0000E+00  0.0000E+00  0.0000E+00  0.0000E+00  0.0000E+00  0.0000E+00  0.0000E+00  0.0000E+00  0.0000E+00  0.0000E+00  0.0000E+00  0.0000E+00  0.0000E+00  0.3783E-01  0.0000E+00  0.0000E+00  0.0000E+00  0.0000E+00  0.0000E+00  0.0000E+00  0.0000E+00  0.0000E+00  0.0000E+00  0.0000E+00  0.0000E+00  0.0000E+00  0.0000E+00  0.0000E+00  0.0000E+00
REACH    3        0     6  0.1834E+01  0.1223E-01  0.1222E-01  0.2093E-04  0.0000E+00  0.2562E-06  0.0000E+00  0.0000E+00  0.5509E-05  0.0000E+00  0.1627E-04  0.1600E-05  0.4028E+00  0.4024E+00  0.0000E+00  0.4070E-02  0.0000E+00  0.0000E+00  0.5426E-05  0.0000E+00  0.1564E-11  0.0000E+00  0.0000E+00  0.0000E+00  0.3710E+03  0.3667E+03  0.0000E+00  0.0000E+00  0.0000E+00  0.0000E+00  0.0000E+00  0.0000E+00  0.0000E+00  0.0000E+00  0.0000E+00  0.0000E+00  0.0000E+00  0.0000E+00  0.0000E+00  0.0000E+00  0.0000E+00  0.0000E+00  0.0000E+00  0.4064E+00  0.1600E-05  0.0000E+00  0.0000E+00  0.0000E+00  0.0000E+00  0.0000E+00  0.0000E+00  0.0000E+00  0.0000E+00  0.0000E+00  0.0000E+00  0.0000E+00  0.0000E+00  0.0000E+00  0.0000E+00
REACH    1        0     7  0.5790E+01  0.5935E-01  0.5926E-01  0.9845E-04  0.0000E+00  0.9922E-07  0.1759E+02  0.1102E+03  0.5162E-05  0.0000E+00  0.3208E-04  0.0000E+00  0.1169E+00  0.1167E+00  0.9035E-02  0.2771E-01  0.0000E+00  0.0000E+00  0.5167E-05  0.0000E+00  0.3670E-12  0.0000E+00  0.0000E+00  0.0000E+00  0.1833E+04  0.1823E+04  0.0000E+00  0.0000E+00  0.0000E+00  0.0000E+00  0.0000E+00  0.0000E+00  0.0000E+00  0.0000E+00  0.0000E+00  0.0000E+00  0.0000E+00  0.0000E+00  0.0000E+00  0.0000E+00  0.0000E+00  0.0000E+00  0.0000E+00  0.1444E+00  0.0000E+00  0.0000E+00  0.0000E+00  0.0000E+00  0.0000E+00  0.0000E+00  0.0000E+00  0.0000E+00  0.0000E+00  0.0000E+00  0.0000E+00  0.0000E+00  0.0000E+00  0.0000E+00  0.0000E+00
REACH    2        0     7  0.2233E+01  0.3242E-01  0.3239E-01  0.3270E-04  0.0000E+00  0.9917E-07  0.0000E+00  0.0000E+00  0.6525E-05  0.0000E+00  0.1957E-04  0.0000E+00  0.4981E-02  0.4964E-02  0.0000E+00  0.5980E-02  0.0000E+00  0.0000E+00  0.6532E-05  0.0000E+00  0.4112E-12  0.0000E+00  0.0000E+00  0.0000E+00  0.1008E+04  0.9961E+03  0.0000E+00  0.0000E+00  0.0000E+00  0.0000E+00  0.0000E+00  0.0000E+00  0.0000E+00  0.0000E+00  0.0000E+00  0.0000E+00  0.0000E+00  0.0000E+00  0.0000E+00  0.0000E+00  0.0000E+00  0.0000E+00  0.0000E+00  0.1094E-01  0.0000E+00  0.0000E+00  0.0000E+00  0.0000E+00  0.0000E+00  0.0000E+00  0.0000E+00  0.0000E+00  0.0000E+00  0.0000E+00  0.0000E+00  0.0000E+00  0.0000E+00  0.0000E+00  0.0000E+00
REACH    3        0     7  0.1834E+01  0.4441E-02  0.4421E-02  0.2032E-04  0.0000E+00  0.2647E-06  0.0000E+00  0.0000E+00  0.5601E-05  0.0000E+00  0.1680E-04  0.1660E-04  0.1071E+00  0.1066E+00  0.0000E+00  0.3055E-02  0.0000E+00  0.0000E+00  0.5607E-05  0.0000E+00  0.5484E-11  0.0000E+00  0.0000E+00  0.0000E+00  0.1380E+03  0.1360E+03  0.0000E+00  0.0000E+00  0.0000E+00  0.0000E+00  0.0000E+00  0.0000E+00  0.0000E+00  0.0000E+00  0.0000E+00  0.0000E+00  0.0000E+00  0.0000E+00  0.0000E+00  0.0000E+00  0.0000E+00  0.0000E+00  0.0000E+00  0.1096E+00  0.1660E-04  0.0000E+00  0.0000E+00  0.0000E+00  0.0000E+00  0.0000E+00  0.0000E+00  0.0000E+00  0.0000E+00  0.0000E+00  0.0000E+00  0.0000E+00  0.0000E+00  0.0000E+00  0.0000E+00
REACH    1        0     8  0.5790E+01  0.4643E-01  0.4634E-01  0.9019E-04  0.0000E+00  0.1590E-06  0.1077E+02  0.8624E+02  0.6916E-05  0.0000E+00  0.3193E-04  0.0000E+00  0.9998E-01  0.9981E-01  0.9958E-02  0.3082E-01  0.0000E+00  0.1207E-04  0.1244E-04  0.0000E+00  0.4763E-12  0.0000E+00  0.0000E+00  0.0000E+00  0.1427E+04  0.1419E+04  0.0000E+00  0.0000E+00  0.0000E+00  0.0000E+00  0.0000E+00  0.0000E+00  0.0000E+00  0.0000E+00  0.0000E+00  0.0000E+00  0.0000E+00  0.0000E+00  0.0000E+00  0.0000E+00  0.0000E+00  0.0000E+00  0.0000E+00  0.1306E+00  0.0000E+00  0.0000E+00  0.0000E+00  0.0000E+00  0.0000E+00  0.0000E+00  0.0000E+00  0.0000E+00  0.0000E+00  0.0000E+00  0.0000E+00  0.0000E+00  0.0000E+00  0.0000E+00  0.0000E+00
REACH    2        0     8  0.2233E+01  0.2637E-01  0.2634E-01  0.2995E-04  0.0000E+00  0.9917E-07  0.0000E+00  0.0000E+00  0.6525E-05  0.0000E+00  0.1957E-04  0.0000E+00  0.1775E-01  0.1773E-01  0.0000E+00  0.6402E-02  0.0000E+00  0.0000E+00  0.6532E-05  0.0000E+00  0.5073E-12  0.0000E+00  0.0000E+00  0.0000E+00  0.8157E+03  0.8063E+03  0.0000E+00  0.0000E+00  0.0000E+00  0.0000E+00  0.0000E+00  0.0000E+00  0.0000E+00  0.0000E+00  0.0000E+00  0.0000E+00  0.0000E+00  0.0000E+00  0.0000E+00  0.0000E+00  0.0000E+00  0.0000E+00  0.0000E+00  0.2413E-01  0.0000E+00  0.0000E+00  0.0000E+00  0.0000E+00  0.0000E+00  0.0000E+00  0.0000E+00  0.0000E+00  0.0000E+00  0.0000E+00  0.0000E+00  0.0000E+00  0.0000E+00  0.0000E+00  0.0000E+00
REACH    3        0     8  0.1834E+01  0.2652E-02  0.2634E-02  0.1861E-04  0.0000E+00  0.2647E-06  0.5978E-07  0.1330E-04  0.5601E-05  0.1754E-05  0.1680E-04  0.1645E-04  0.6450E-01  0.6408E-01  0.0000E+00  0.3557E-02  0.0000E+00  0.0000E+00  0.5607E-05  0.7277E-05  0.7735E-11  0.0000E+00  0.0000E+00  0.0000E+00  0.8211E+02  0.8068E+02  0.0000E+00  0.0000E+00  0.0000E+00  0.0000E+00  0.0000E+00  0.0000E+00  0.0000E+00  0.0000E+00  0.0000E+00  0.0000E+00  0.0000E+00  0.0000E+00  0.0000E+00  0.0000E+00  0.0000E+00  0.0000E+00  0.0000E+00  0.6763E-01  0.2372E-04  0.0000E+00  0.0000E+00  0.0000E+00  0.0000E+00  0.0000E+00  0.0000E+00  0.0000E+00  0.0000E+00  0.0000E+00  0.0000E+00  0.0000E+00  0.0000E+00  0.0000E+00  0.0000E+00
REACH    1        0     9  0.5790E+01  0.3791E-01  0.3783E-01  0.7895E-04  0.0000E+00  0.2152E+03  0.6965E+01  0.7041E+02  0.3063E+00  0.3043E+00  0.6614E-01  0.6552E-01  0.3241E+00  0.3234E+00  0.8591E-02  0.2716E-01  0.3753E-06  0.3611E-04  0.1707E-02  0.2956E-02  0.8349E-03  0.5139E-04  0.3036E+04  0.2935E+04  0.1085E+04  0.1036E+04  0.0000E+00  0.0000E+00  0.0000E+00  0.0000E+00  0.0000E+00  0.0000E+00  0.0000E+00  0.0000E+00  0.0000E+00  0.0000E+00  0.0000E+00  0.0000E+00  0.0000E+00  0.0000E+00  0.0000E+00  0.0000E+00  0.0000E+00  0.6548E+00  0.6848E-01  0.0000E+00  0.0000E+00  0.0000E+00  0.0000E+00  0.0000E+00  0.0000E+00  0.0000E+00  0.0000E+00  0.0000E+00  0.0000E+00  0.0000E+00  0.0000E+00  0.0000E+00  0.0000E+00
REACH    2        0     9  0.2233E+01  0.2163E-01  0.2160E-01  0.2621E-04  0.0000E+00  0.8673E+02  0.8554E+02  0.1181E+04  0.2143E+00  0.2134E+00  0.4632E-01  0.4607E-01  0.1181E+00  0.1179E+00  0.0000E+00  0.6163E-02  0.0000E+00  0.0000E+00  0.7311E-03  0.1136E-02  0.8715E-03  0.3685E-03  0.1030E+04  0.1010E+04  0.6474E+03  0.6048E+03  0.0000E+00  0.0000E+00  0.0000E+00  0.0000E+00  0.0000E+00  0.0000E+00  0.0000E+00  0.0000E+00  0.0000E+00  0.0000E+00  0.0000E+00  0.0000E+00  0.0000E+00  0.0000E+00  0.0000E+00  0.0000E+00  0.0000E+00  0.3375E+00  0.4720E-01  0.0000E+00  0.0000E+00  0.0000E+00  0.0000E+00  0.0000E+00  0.0000E+00  0.0000E+00  0.0000E+00  0.0000E+00  0.0000E+00  0.0000E+00  0.0000E+00  0.0000E+00  0.0000E+00
REACH    3        0     9  0.1834E+01  0.2472E-02  0.2456E-02  0.1629E-04  0.0000E+00  0.3257E+02  0.3163E+02  0.3023E+04  0.2000E-01  0.1976E-01  0.4338E-02  0.4272E-02  0.1076E+00  0.1069E+00  0.0000E+00  0.2428E-02  0.0000E+00  0.3753E-06  0.9892E-04  0.2450E-03  0.5996E-03  0.0000E+00  0.8542E+03  0.8167E+03  0.7329E+02  0.6572E+02  0.0000E+00  0.0000E+00  0.0000E+00  0.0000E+00  0.0000E+00  0.0000E+00  0.0000E+00  0.0000E+00  0.0000E+00  0.0000E+00  0.0000E+00  0.0000E+00  0.0000E+00  0.0000E+00  0.0000E+00  0.0000E+00  0.0000E+00  0.1291E+00  0.4517E-02  0.0000E+00  0.0000E+00  0.0000E+00  0.0000E+00  0.0000E+00  0.0000E+00  0.0000E+00  0.0000E+00  0.0000E+00  0.0000E+00  0.0000E+00  0.0000E+00  0.0000E+00  0.0000E+00
REACH    1        0    10  0.5790E+01  0.3586E-01  0.3581E-01  0.6526E-04  0.0000E+00  0.2775E+04  0.7118E+01  0.6771E+02  0.5436E+01  0.5403E+01  0.1173E+01  0.1163E+01  0.2678E+00  0.2675E+00  0.1314E-01  0.4189E-01  0.2344E-06  0.6690E-04  0.1995E-01  0.2803E-01  0.5629E-01  0.2381E-01  0.1360E+06  0.1330E+06  0.8600E+03  0.7475E+03  0.0000E+00  0.0000E+00  0.0000E+00  0.0000E+00  0.0000E+00  0.0000E+00  0.0000E+00  0.0000E+00  0.0000E+00  0.0000E+00  0.0000E+00  0.0000E+00  0.0000E+00  0.0000E+00  0.0000E+00  0.0000E+00  0.0000E+00  0.5712E+01  0.1191E+01  0.0000E+00  0.0000E+00  0.0000E+00  0.0000E+00  0.0000E+00  0.0000E+00  0.0000E+00  0.0000E+00  0.0000E+00  0.0000E+00  0.0000E+00  0.0000E+00  0.0000E+00  0.0000E+00
REACH    2        0    10  0.2233E+01  0.1973E-01  0.1971E-01  0.2164E-04  0.0000E+00  0.9827E+03  0.9708E+03  0.9052E+04  0.3739E+01  0.3725E+01  0.8078E+00  0.8038E+00  0.1071E+00  0.1070E+00  0.0000E+00  0.9895E-02  0.0000E+00  0.0000E+00  0.9917E-02  0.1315E-01  0.6099E-01  0.3170E-01  0.4464E+05  0.4397E+05  0.5653E+03  0.4448E+03  0.0000E+00  0.0000E+00  0.0000E+00  0.0000E+00  0.0000E+00  0.0000E+00  0.0000E+00  0.0000E+00  0.0000E+00  0.0000E+00  0.0000E+00  0.0000E+00  0.0000E+00  0.0000E+00  0.0000E+00  0.0000E+00  0.0000E+00  0.3842E+01  0.8169E+00  0.0000E+00  0.0000E+00  0.0000E+00  0.0000E+00  0.0000E+00  0.0000E+00  0.0000E+00  0.0000E+00  0.0000E+00  0.0000E+00  0.0000E+00  0.0000E+00  0.0000E+00  0.0000E+00
REACH    3        0    10  0.1834E+01  0.3419E-02  0.3406E-02  0.1344E-04  0.0000E+00  0.6666E+03  0.6579E+03  0.1646E+05  0.4063E+00  0.4029E+00  0.8778E-01  0.8684E-01  0.7728E-01  0.7706E-01  0.0000E+00  0.3241E-02  0.0000E+00  0.2344E-06  0.1589E-02  0.2375E-02  0.1485E-01  0.3500E-02  0.4128E+05  0.4059E+05  0.8063E+02  0.5706E+02  0.0000E+00  0.0000E+00  0.0000E+00  0.0000E+00  0.0000E+00  0.0000E+00  0.0000E+00  0.0000E+00  0.0000E+00  0.0000E+00  0.0000E+00  0.0000E+00  0.0000E+00  0.0000E+00  0.0000E+00  0.0000E+00  0.0000E+00  0.4832E+00  0.8921E-01  0.0000E+00  0.0000E+00  0.0000E+00  0.0000E+00  0.0000E+00  0.0000E+00  0.0000E+00  0.0000E+00  0.0000E+00  0.0000E+00  0.0000E+00  0.0000E+00  0.0000E+00  0.0000E+00
REACH    1        0    11  0.5790E+01  0.4562E-01  0.4555E-01  0.4767E-04  0.0000E+00  0.1133E+05  0.1793E+02  0.1025E+03  0.2484E+02  0.2475E+02  0.5371E+01  0.5343E+01  0.4153E+01  0.4129E+01  0.2219E-01  0.6866E-01  0.1880E-06  0.6791E-04  0.7142E-01  0.9013E-01  0.6148E+00  0.4221E+00  0.7418E+06  0.7327E+06  0.7822E+03  0.6357E+03  0.0000E+00  0.0000E+00  0.0000E+00  0.0000E+00  0.0000E+00  0.0000E+00  0.0000E+00  0.0000E+00  0.0000E+00  0.0000E+00  0.0000E+00  0.0000E+00  0.0000E+00  0.0000E+00  0.0000E+00  0.0000E+00  0.0000E+00  0.2894E+02  0.5433E+01  0.0000E+00  0.0000E+00  0.0000E+00  0.0000E+00  0.0000E+00  0.0000E+00  0.0000E+00  0.0000E+00  0.0000E+00  0.0000E+00  0.0000E+00  0.0000E+00  0.0000E+00  0.0000E+00
REACH    2        0    11  0.2233E+01  0.2270E-01  0.2268E-01  0.1576E-04  0.0000E+00  0.3686E+04  0.3663E+04  0.1007E+05  0.1704E+02  0.1699E+02  0.3690E+01  0.3677E+01  0.1603E+01  0.1597E+01  0.0000E+00  0.1688E-01  0.0000E+00  0.0000E+00  0.3802E-01  0.4668E-01  0.5432E+00  0.3842E+00  0.2458E+06  0.2439E+06  0.5309E+03  0.3784E+03  0.0000E+00  0.0000E+00  0.0000E+00  0.0000E+00  0.0000E+00  0.0000E+00  0.0000E+00  0.0000E+00  0.0000E+00  0.0000E+00  0.0000E+00  0.0000E+00  0.0000E+00  0.0000E+00  0.0000E+00  0.0000E+00  0.0000E+00  0.1861E+02  0.3724E+01  0.0000E+00  0.0000E+00  0.0000E+00  0.0000E+00  0.0000E+00  0.0000E+00  0.0000E+00  0.0000E+00  0.0000E+00  0.0000E+00  0.0000E+00  0.0000E+00  0.0000E+00  0.0000E+00
REACH    3        0    11  0.1834E+01  0.7575E-02  0.7565E-02  0.9942E-05  0.0000E+00  0.3329E+04  0.3309E+04  0.1285E+05  0.2027E+01  0.2021E+01  0.4376E+00  0.4359E+00  0.1122E+01  0.1117E+01  0.0000E+00  0.5305E-02  0.0000E+00  0.1880E-06  0.6843E-02  0.8115E-02  0.8088E-01  0.4476E-01  0.2273E+06  0.2256E+06  0.1321E+03  0.5704E+02  0.0000E+00  0.0000E+00  0.0000E+00  0.0000E+00  0.0000E+00  0.0000E+00  0.0000E+00  0.0000E+00  0.0000E+00  0.0000E+00  0.0000E+00  0.0000E+00  0.0000E+00  0.0000E+00  0.0000E+00  0.0000E+00  0.0000E+00  0.3144E+01  0.4440E+00  0.0000E+00  0.0000E+00  0.0000E+00  0.0000E+00  0.0000E+00  0.0000E+00  0.0000E+00  0.0000E+00  0.0000E+00  0.0000E+00  0.0000E+00  0.0000E+00  0.0000E+00  0.0000E+00
REACH    1        0    12  0.5790E+01  0.1840E+00  0.1840E+00  0.2893E-04  0.0000E+00  0.7185E+05  0.1099E+03  0.1825E+03  0.1593E+03  0.1590E+03  0.3435E+02  0.3425E+02  0.6160E+02  0.6157E+02  0.7207E-01  0.2154E+00  0.0000E+00  0.8559E-04  0.4040E+00  0.4875E+00  0.4234E+01  0.3263E+01  0.4091E+07  0.4044E+07  0.1232E+04  0.3442E+03  0.0000E+00  0.0000E+00  0.0000E+00  0.0000E+00  0.0000E+00  0.0000E+00  0.0000E+00  0.0000E+00  0.0000E+00  0.0000E+00  0.0000E+00  0.0000E+00  0.0000E+00  0.0000E+00  0.0000E+00  0.0000E+00  0.0000E+00  0.2208E+03  0.3474E+02  0.0000E+00  0.0000E+00  0.0000E+00  0.0000E+00  0.0000E+00  0.0000E+00  0.0000E+00  0.0000E+00  0.0000E+00  0.0000E+00  0.0000E+00  0.0000E+00  0.0000E+00  0.0000E+00
REACH    2        0    12  0.2233E+01  0.7268E-01  0.7267E-01  0.9652E-05  0.0000E+00  0.2144E+05  0.2129E+05  0.6310E+05  0.1063E+03  0.1062E+03  0.2295E+02  0.2291E+02  0.2081E+02  0.2081E+02  0.0000E+00  0.5976E-01  0.0000E+00  0.0000E+00  0.2164E+00  0.2553E+00  0.3316E+01  0.2664E+01  0.1261E+07  0.1251E+07  0.1144E+04  0.1786E+03  0.0000E+00  0.0000E+00  0.0000E+00  0.0000E+00  0.0000E+00  0.0000E+00  0.0000E+00  0.0000E+00  0.0000E+00  0.0000E+00  0.0000E+00  0.0000E+00  0.0000E+00  0.0000E+00  0.0000E+00  0.0000E+00  0.0000E+00  0.1271E+03  0.2316E+02  0.0000E+00  0.0000E+00  0.0000E+00  0.0000E+00  0.0000E+00  0.0000E+00  0.0000E+00  0.0000E+00  0.0000E+00  0.0000E+00  0.0000E+00  0.0000E+00  0.0000E+00  0.0000E+00
REACH    3        0    12  0.1834E+01  0.5336E-01  0.5335E-01  0.6182E-05  0.0000E+00  0.2507E+05  0.2494E+05  0.7734E+05  0.1498E+02  0.1496E+02  0.3228E+01  0.3222E+01  0.1980E+02  0.1979E+02  0.0000E+00  0.1231E-01  0.0000E+00  0.0000E+00  0.4591E-01  0.5146E-01  0.4829E+00  0.3831E+00  0.1487E+07  0.1477E+07  0.7684E+03  0.1067E+03  0.0000E+00  0.0000E+00  0.0000E+00  0.0000E+00  0.0000E+00  0.0000E+00  0.0000E+00  0.0000E+00  0.0000E+00  0.0000E+00  0.0000E+00  0.0000E+00  0.0000E+00  0.0000E+00  0.0000E+00  0.0000E+00  0.0000E+00  0.3477E+02  0.3274E+01  0.0000E+00  0.0000E+00  0.0000E+00  0.0000E+00  0.0000E+00  0.0000E+00  0.0000E+00  0.0000E+00  0.0000E+00  0.0000E+00  0.0000E+00  0.0000E+00  0.0000E+00  0.0000E+00
REACH    1        0  1983  0.5790E+01  0.1377E+00  0.1376E+00  0.6963E-04  0.0000E+00  0.5525E+06  0.1051E+04  0.1441E+03  0.1804E+05  0.1802E+05  0.3967E+04  0.3960E+04  0.2187E+03  0.2183E+03  0.5136E+01  0.1532E+02  0.5427E-04  0.6015E-02  0.5192E+01  0.1038E+02  0.5245E+03  0.4721E+03  0.3147E+08  0.3121E+08  0.2295E+05  0.1781E+05  0.0000E+00  0.0000E+00  0.0000E+00  0.0000E+00  0.0000E+00  0.0000E+00  0.0000E+00  0.0000E+00  0.0000E+00  0.0000E+00  0.0000E+00  0.0000E+00  0.0000E+00  0.0000E+00  0.0000E+00  0.0000E+00  0.0000E+00  0.1825E+05  0.3970E+04  0.0000E+00  0.0000E+00  0.0000E+00  0.0000E+00  0.0000E+00  0.0000E+00  0.0000E+00  0.0000E+00  0.0000E+00  0.0000E+00  0.0000E+00  0.0000E+00  0.0000E+00  0.0000E+00
REACH    2        0  1983  0.2233E+01  0.5469E-01  0.5467E-01  0.2313E-04  0.0000E+00  0.1638E+06  0.1630E+06  0.2060E+05  0.6963E+04  0.6957E+04  0.1531E+04  0.1528E+04  0.6474E+02  0.6466E+02  0.0000E+00  0.3011E+01  0.0000E+00  0.3446E-04  0.1832E+01  0.3096E+01  0.2188E+03  0.1996E+03  0.1000E+08  0.9943E+07  0.1341E+05  0.8072E+04  0.0000E+00  0.0000E+00  0.0000E+00  0.0000E+00  0.0000E+00  0.0000E+00  0.0000E+00  0.0000E+00  0.0000E+00  0.0000E+00  0.0000E+00  0.0000E+00  0.0000E+00  0.0000E+00  0.0000E+00  0.0000E+00  0.0000E+00  0.7024E+04  0.1532E+04  0.0000E+00  0.0000E+00  0.0000E+00  0.0000E+00  0.0000E+00  0.0000E+00  0.0000E+00  0.0000E+00  0.0000E+00  0.0000E+00  0.0000E+00  0.0000E+00  0.0000E+00  0.0000E+00
[...]
REACH    1        0     5  0.5790E+01  0.4585E-01  0.4575E-01  0.1031E-03  0.0000E+00  0.5940E+03  0.1050E+02  0.8516E+02  0.3764E+02  0.3744E+02  0.8352E+01  0.8291E+01  0.1275E+01  0.1275E+01  0.2575E-01  0.8058E-01  0.1084E-05  0.7983E-04  0.6366E-02  0.1846E-01  0.1679E+00  0.3662E-01  0.1252E+05  0.1216E+05  0.1298E+04  0.1220E+04  0.0000E+00  0.0000E+00  0.0000E+00  0.0000E+00  0.0000E+00  0.0000E+00  0.0000E+00  0.0000E+00  0.0000E+00  0.0000E+00  0.0000E+00  0.0000E+00  0.0000E+00  0.0000E+00  0.0000E+00  0.0000E+00  0.0000E+00  0.3879E+02  0.8310E+01  0.0000E+00  0.0000E+00  0.0000E+00  0.0000E+00  0.0000E+00  0.0000E+00  0.0000E+00  0.0000E+00  0.0000E+00  0.0000E+00  0.0000E+00  0.0000E+00  0.0000E+00  0.0000E+00
REACH    2        0     5  0.2233E+01  0.2319E-01  0.2316E-01  0.3425E-04  0.0000E+00  0.1959E+03  0.1933E+03  0.2490E+04  0.1664E+02  0.1658E+02  0.3684E+01  0.3666E+01  0.3907E+00  0.3906E+00  0.0000E+00  0.7255E-02  0.0000E+00  0.0000E+00  0.1533E-02  0.4227E-02  0.1419E+00  0.6645E-01  0.3298E+04  0.3234E+04  0.7061E+03  0.6310E+03  0.0000E+00  0.0000E+00  0.0000E+00  0.0000E+00  0.0000E+00  0.0000E+00  0.0000E+00  0.0000E+00  0.0000E+00  0.0000E+00  0.0000E+00  0.0000E+00  0.0000E+00  0.0000E+00  0.0000E+00  0.0000E+00  0.0000E+00  0.1697E+02  0.3671E+01  0.0000E+00  0.0000E+00  0.0000E+00  0.0000E+00  0.0000E+00  0.0000E+00  0.0000E+00  0.0000E+00  0.0000E+00  0.0000E+00  0.0000E+00  0.0000E+00  0.0000E+00  0.0000E+00
REACH    3        0     5  0.1834E+01  0.5737E-02  0.5720E-02  0.2128E-04  0.0000E+00  0.1686E+03  0.1663E+03  0.6986E+04  0.9722E+01  0.9674E+01  0.2162E+01  0.2148E+01  0.5019E+00  0.5004E+00  0.0000E+00  0.1850E-01  0.0000E+00  0.1084E-05  0.4609E-03  0.1403E-02  0.1761E+00  0.0000E+00  0.5674E+04  0.5557E+04  0.1717E+03  0.1505E+03  0.0000E+00  0.0000E+00  0.0000E+00  0.0000E+00  0.0000E+00  0.0000E+00  0.0000E+00  0.0000E+00  0.0000E+00  0.0000E+00  0.0000E+00  0.0000E+00  0.0000E+00  0.0000E+00  0.0000E+00  0.0000E+00  0.0000E+00  0.1019E+02  0.2150E+01  0.0000E+00  0.0000E+00  0.0000E+00  0.0000E+00  0.0000E+00  0.0000E+00  0.0000E+00  0.0000E+00  0.0000E+00  0.0000E+00  0.0000E+00  0.0000E+00  0.0000E+00  0.0000E+00
REACH    1        0     6  0.5790E+01  0.3548E-01  0.3540E-01  0.8481E-04  0.0000E+00  0.1536E+03  0.6063E+01  0.6590E+02  0.1005E+02  0.9973E+01  0.2230E+01  0.2207E+01  0.1779E+00  0.1774E+00  0.8821E-02  0.2785E-01  0.0000E+00  0.3215E-04  0.1946E-02  0.5837E-02  0.2609E-01  0.0000E+00  0.1803E+04  0.1729E+04  0.1035E+04  0.9928E+03  0.0000E+00  0.0000E+00  0.0000E+00  0.0000E+00  0.0000E+00  0.0000E+00  0.0000E+00  0.0000E+00  0.0000E+00  0.0000E+00  0.0000E+00  0.0000E+00  0.0000E+00  0.0000E+00  0.0000E+00  0.0000E+00  0.0000E+00  0.1018E+02  0.2213E+01  0.0000E+00  0.0000E+00  0.0000E+00  0.0000E+00  0.0000E+00  0.0000E+00  0.0000E+00  0.0000E+00  0.0000E+00  0.0000E+00  0.0000E+00  0.0000E+00  0.0000E+00  0.0000E+00
REACH    2        0     6  0.2233E+01  0.1938E-01  0.1935E-01  0.2818E-04  0.0000E+00  0.5830E+02  0.5724E+02  0.1059E+04  0.5010E+01  0.4986E+01  0.1110E+01  0.1103E+01  0.5316E-01  0.5308E-01  0.0000E+00  0.6070E-02  0.0000E+00  0.0000E+00  0.4894E-03  0.1407E-02  0.2497E-01  0.7273E-02  0.5763E+03  0.5619E+03  0.5878E+03  0.5536E+03  0.0000E+00  0.0000E+00  0.0000E+00  0.0000E+00  0.0000E+00  0.0000E+00  0.0000E+00  0.0000E+00  0.0000E+00  0.0000E+00  0.0000E+00  0.0000E+00  0.0000E+00  0.0000E+00  0.0000E+00  0.0000E+00  0.0000E+00  0.5045E+01  0.1104E+01  0.0000E+00  0.0000E+00  0.0000E+00  0.0000E+00  0.0000E+00  0.0000E+00  0.0000E+00  0.0000E+00  0.0000E+00  0.0000E+00  0.0000E+00  0.0000E+00  0.0000E+00  0.0000E+00
REACH    3        0     6  0.1834E+01  0.2645E-02  0.2627E-02  0.1751E-04  0.0000E+00  0.2756E+02  0.2664E+02  0.2981E+04  0.1668E+01  0.1648E+01  0.3710E+00  0.3654E+00  0.7645E-01  0.7598E-01  0.0000E+00  0.2752E-02  0.0000E+00  0.0000E+00  0.9935E-04  0.3081E-03  0.1868E-01  0.0000E+00  0.5705E+03  0.5418E+03  0.7965E+02  0.7217E+02  0.0000E+00  0.0000E+00  0.0000E+00  0.0000E+00  0.0000E+00  0.0000E+00  0.0000E+00  0.0000E+00  0.0000E+00  0.0000E+00  0.0000E+00  0.0000E+00  0.0000E+00  0.0000E+00  0.0000E+00  0.0000E+00  0.0000E+00  0.1727E+01  0.3657E+00  0.0000E+00  0.0000E+00  0.0000E+00  0.0000E+00  0.0000E+00  0.0000E+00  0.0000E+00  0.0000E+00  0.0000E+00  0.0000E+00  0.0000E+00  0.0000E+00  0.0000E+00  0.0000E+00
REACH    1        0     7  0.5790E+01  0.2717E-01  0.2707E-01  0.1202E-03  0.0000E+00  0.1665E-05  0.5975E+01  0.8354E+02  0.2826E-02  0.2873E-02  0.6408E-03  0.6285E-03  0.3797E-01  0.3799E-01  0.1213E-01  0.3711E-01  0.0000E+00  0.4755E-04  0.4949E-04  0.9839E-04  0.7904E-07  0.0000E+00  0.1832E-05  0.8053E-05  0.8579E+03  0.8514E+03  0.0000E+00  0.0000E+00  0.0000E+00  0.0000E+00  0.0000E+00  0.0000E+00  0.0000E+00  0.0000E+00  0.0000E+00  0.0000E+00  0.0000E+00  0.0000E+00  0.0000E+00  0.0000E+00  0.0000E+00  0.0000E+00  0.0000E+00  0.7802E-01  0.7269E-03  0.0000E+00  0.0000E+00  0.0000E+00  0.0000E+00  0.0000E+00  0.0000E+00  0.0000E+00  0.0000E+00  0.0000E+00  0.0000E+00  0.0000E+00  0.0000E+00  0.0000E+00  0.0000E+00
REACH    2        0     7  0.2233E+01  0.1575E-01  0.1572E-01  0.4004E-04  0.0000E+00  0.1225E-05  0.0000E+00  0.0000E+00  0.1628E-02  0.1644E-02  0.3684E-03  0.3581E-03  0.9775E-02  0.9779E-02  0.0000E+00  0.5684E-02  0.0000E+00  0.0000E+00  0.1393E-04  0.1701E-04  0.8768E-07  0.0000E+00  0.0000E+00  0.0000E+00  0.5003E+03  0.4943E+03  0.0000E+00  0.0000E+00  0.0000E+00  0.0000E+00  0.0000E+00  0.0000E+00  0.0000E+00  0.0000E+00  0.0000E+00  0.0000E+00  0.0000E+00  0.0000E+00  0.0000E+00  0.0000E+00  0.0000E+00  0.0000E+00  0.0000E+00  0.1711E-01  0.3751E-03  0.0000E+00  0.0000E+00  0.0000E+00  0.0000E+00  0.0000E+00  0.0000E+00  0.0000E+00  0.0000E+00  0.0000E+00  0.0000E+00  0.0000E+00  0.0000E+00  0.0000E+00  0.0000E+00
REACH    3        0     7  0.1834E+01  0.1022E-02  0.1000E-02  0.2505E-04  0.0000E+00  0.4422E-06  0.3142E-06  0.1219E-03  0.2118E-03  0.2146E-03  0.6102E-04  0.6043E-04  0.1792E-01  0.1766E-01  0.0000E+00  0.6444E-02  0.0000E+00  0.0000E+00  0.6998E-05  0.2139E-04  0.6502E-07  0.0000E+00  0.0000E+00  0.1832E-05  0.3251E+02  0.3152E+02  0.0000E+00  0.0000E+00  0.0000E+00  0.0000E+00  0.0000E+00  0.0000E+00  0.0000E+00  0.0000E+00  0.0000E+00  0.0000E+00  0.0000E+00  0.0000E+00  0.0000E+00  0.0000E+00  0.0000E+00  0.0000E+00  0.0000E+00  0.2432E-01  0.8181E-04  0.0000E+00  0.0000E+00  0.0000E+00  0.0000E+00  0.0000E+00  0.0000E+00  0.0000E+00  0.0000E+00  0.0000E+00  0.0000E+00  0.0000E+00  0.0000E+00  0.0000E+00  0.0000E+00
REACH    1        0     8  0.5790E+01  0.2105E-01  0.2096E-01  0.8871E-04  0.0000E+00  0.3640E-06  0.4437E+01  0.7876E+02  0.1039E-04  0.0000E+00  0.3089E-04  0.0000E+00  0.8542E-01  0.8482E-01  0.1306E-01  0.3966E-01  0.0000E+00  0.7390E-04  0.2143E-04  0.0000E+00  0.1054E-11  0.0000E+00  0.0000E+00  0.0000E+00  0.6581E+03  0.6529E+03  0.0000E+00  0.0000E+00  0.0000E+00  0.0000E+00  0.0000E+00  0.0000E+00  0.0000E+00  0.0000E+00  0.0000E+00  0.0000E+00  0.0000E+00  0.0000E+00  0.0000E+00  0.0000E+00  0.0000E+00  0.0000E+00  0.0000E+00  0.1245E+00  0.0000E+00  0.0000E+00  0.0000E+00  0.0000E+00  0.0000E+00  0.0000E+00  0.0000E+00  0.0000E+00  0.0000E+00  0.0000E+00  0.0000E+00  0.0000E+00  0.0000E+00  0.0000E+00  0.0000E+00
REACH    2        0     8  0.2233E+01  0.1255E-01  0.1252E-01  0.2906E-04  0.0000E+00  0.9917E-07  0.0000E+00  0.0000E+00  0.6525E-05  0.0000E+00  0.1957E-04  0.0000E+00  0.2613E-01  0.2603E-01  0.0000E+00  0.6028E-02  0.0000E+00  0.0000E+00  0.6532E-05  0.0000E+00  0.1076E-11  0.0000E+00  0.0000E+00  0.0000E+00  0.3950E+03  0.3901E+03  0.0000E+00  0.0000E+00  0.0000E+00  0.0000E+00  0.0000E+00  0.0000E+00  0.0000E+00  0.0000E+00  0.0000E+00  0.0000E+00  0.0000E+00  0.0000E+00  0.0000E+00  0.0000E+00  0.0000E+00  0.0000E+00  0.0000E+00  0.3206E-01  0.0000E+00  0.0000E+00  0.0000E+00  0.0000E+00  0.0000E+00  0.0000E+00  0.0000E+00  0.0000E+00  0.0000E+00  0.0000E+00  0.0000E+00  0.0000E+00  0.0000E+00  0.0000E+00  0.0000E+00
REACH    3        0     8  0.1834E+01  0.6032E-03  0.5846E-03  0.1857E-04  0.0000E+00  0.2647E-06  0.2647E-06  0.1780E-03  0.5601E-05  0.5229E-05  0.1680E-04  0.1540E-04  0.3412E-01  0.3311E-01  0.0000E+00  0.7032E-02  0.0000E+00  0.0000E+00  0.5607E-05  0.1627E-04  0.1971E-10  0.0000E+00  0.0000E+00  0.0000E+00  0.1890E+02  0.1813E+02  0.0000E+00  0.0000E+00  0.0000E+00  0.0000E+00  0.0000E+00  0.0000E+00  0.0000E+00  0.0000E+00  0.0000E+00  0.0000E+00  0.0000E+00  0.0000E+00  0.0000E+00  0.0000E+00  0.0000E+00  0.0000E+00  0.0000E+00  0.4015E-01  0.3167E-04  0.0000E+00  0.0000E+00  0.0000E+00  0.0000E+00  0.0000E+00  0.0000E+00  0.0000E+00  0.0000E+00  0.0000E+00  0.0000E+00  0.0000E+00  0.0000E+00  0.0000E+00  0.0000E+00
REACH    1        0     9  0.5790E+01  0.1707E-01  0.1700E-01  0.7749E-04  0.0000E+00  0.3522E-06  0.2830E+01  0.6389E+02  0.1012E-04  0.0000E+00  0.3011E-04  0.0000E+00  0.1529E+00  0.1523E+00  0.1275E-01  0.3905E-01  0.0000E+00  0.1033E-03  0.2087E-04  0.0000E+00  0.1305E-11  0.0000E+00  0.0000E+00  0.0000E+00  0.5131E+03  0.5089E+03  0.0000E+00  0.0000E+00  0.0000E+00  0.0000E+00  0.0000E+00  0.0000E+00  0.0000E+00  0.0000E+00  0.0000E+00  0.0000E+00  0.0000E+00  0.0000E+00  0.0000E+00  0.0000E+00  0.0000E+00  0.0000E+00  0.0000E+00  0.1914E+00  0.0000E+00  0.0000E+00  0.0000E+00  0.0000E+00  0.0000E+00  0.0000E+00  0.0000E+00  0.0000E+00  0.0000E+00  0.0000E+00  0.0000E+00  0.0000E+00  0.0000E+00  0.0000E+00  0.0000E+00
REACH    2        0     9  0.2233E+01  0.1016E-01  0.1013E-01  0.2538E-04  0.0000E+00  0.9597E-07  0.0000E+00  0.0000E+00  0.6314E-05  0.0000E+00  0.1894E-04  0.0000E+00  0.4631E-01  0.4621E-01  0.0000E+00  0.5785E-02  0.0000E+00  0.0000E+00  0.6321E-05  0.0000E+00  0.1304E-11  0.0000E+00  0.0000E+00  0.0000E+00  0.3072E+03  0.3033E+03  0.0000E+00  0.0000E+00  0.0000E+00  0.0000E+00  0.0000E+00  0.0000E+00  0.0000E+00  0.0000E+00  0.0000E+00  0.0000E+00  0.0000E+00  0.0000E+00  0.0000E+00  0.0000E+00  0.0000E+00  0.0000E+00  0.0000E+00  0.5200E-01  0.0000E+00  0.0000E+00  0.0000E+00  0.0000E+00  0.0000E+00  0.0000E+00  0.0000E+00  0.0000E+00  0.0000E+00  0.0000E+00  0.0000E+00  0.0000E+00  0.0000E+00  0.0000E+00  0.0000E+00
REACH    3        0     9  0.1834E+01  0.7084E-03  0.6922E-03  0.1622E-04  0.0000E+00  0.2562E-06  0.2562E-06  0.1530E-03  0.5421E-05  0.5123E-05  0.1626E-04  0.1512E-04  0.6082E-01  0.5945E-01  0.0000E+00  0.6963E-02  0.0000E+00  0.0000E+00  0.5426E-05  0.1587E-04  0.1508E-10  0.0000E+00  0.0000E+00  0.0000E+00  0.2143E+02  0.2073E+02  0.0000E+00  0.0000E+00  0.0000E+00  0.0000E+00  0.0000E+00  0.0000E+00  0.0000E+00  0.0000E+00  0.0000E+00  0.0000E+00  0.0000E+00  0.0000E+00  0.0000E+00  0.0000E+00  0.0000E+00  0.0000E+00  0.0000E+00  0.6642E-01  0.3099E-04  0.0000E+00  0.0000E+00  0.0000E+00  0.0000E+00  0.0000E+00  0.0000E+00  0.0000E+00  0.0000E+00  0.0000E+00  0.0000E+00  0.0000E+00  0.0000E+00  0.0000E+00  0.0000E+00
REACH    1        0    10  0.5790E+01  0.1814E-01  0.1808E-01  0.5805E-04  0.0000E+00  0.1335E+04  0.3357E+01  0.6426E+02  0.1036E+03  0.1031E+03  0.2300E+02  0.2283E+02  0.5714E+00  0.5663E+00  0.9933E-01  0.3071E+00  0.6091E-05  0.3954E-03  0.2025E-01  0.6004E-01  0.1270E+01  0.2540E+00  0.5897E+05  0.5728E+05  0.4190E+03  0.3418E+03  0.0000E+00  0.0000E+00  0.0000E+00  0.0000E+00  0.0000E+00  0.0000E+00  0.0000E+00  0.0000E+00  0.0000E+00  0.0000E+00  0.0000E+00  0.0000E+00  0.0000E+00  0.0000E+00  0.0000E+00  0.0000E+00  0.0000E+00  0.1040E+03  0.2289E+02  0.0000E+00  0.0000E+00  0.0000E+00  0.0000E+00  0.0000E+00  0.0000E+00  0.0000E+00  0.0000E+00  0.0000E+00  0.0000E+00  0.0000E+00  0.0000E+00  0.0000E+00  0.0000E+00
REACH    2        0    10  0.2233E+01  0.9883E-02  0.9864E-02  0.1903E-04  0.0000E+00  0.4954E+03  0.4883E+03  0.8779E+04  0.5145E+02  0.5127E+02  0.1140E+02  0.1134E+02  0.2590E+00  0.2572E+00  0.0000E+00  0.8089E-01  0.0000E+00  0.3278E-05  0.5131E-02  0.1473E-01  0.1104E+01  0.4428E+00  0.2132E+05  0.2090E+05  0.2819E+03  0.2108E+03  0.0000E+00  0.0000E+00  0.0000E+00  0.0000E+00  0.0000E+00  0.0000E+00  0.0000E+00  0.0000E+00  0.0000E+00  0.0000E+00  0.0000E+00  0.0000E+00  0.0000E+00  0.0000E+00  0.0000E+00  0.0000E+00  0.0000E+00  0.5161E+02  0.1136E+02  0.0000E+00  0.0000E+00  0.0000E+00  0.0000E+00  0.0000E+00  0.0000E+00  0.0000E+00  0.0000E+00  0.0000E+00  0.0000E+00  0.0000E+00  0.0000E+00  0.0000E+00  0.0000E+00
REACH    3        0    10  0.1834E+01  0.1876E-02  0.1860E-02  0.1214E-04  0.0000E+00  0.2789E+03  0.2752E+03  0.1203E+05  0.1875E+02  0.1867E+02  0.4170E+01  0.4145E+01  0.1295E+00  0.1279E+00  0.0000E+00  0.1844E-01  0.0000E+00  0.2813E-05  0.1042E-02  0.3155E-02  0.5139E+00  0.7159E-01  0.1447E+05  0.1418E+05  0.4839E+02  0.2796E+02  0.0000E+00  0.0000E+00  0.0000E+00  0.0000E+00  0.0000E+00  0.0000E+00  0.0000E+00  0.0000E+00  0.0000E+00  0.0000E+00  0.0000E+00  0.0000E+00  0.0000E+00  0.0000E+00  0.0000E+00  0.0000E+00  0.0000E+00  0.1881E+02  0.4148E+01  0.0000E+00  0.0000E+00  0.0000E+00  0.0000E+00  0.0000E+00  0.0000E+00  0.0000E+00  0.0000E+00  0.0000E+00  0.0000E+00  0.0000E+00  0.0000E+00  0.0000E+00  0.0000E+00
REACH    1        0    11  0.5790E+01  0.1799E-01  0.1795E-01  0.3763E-04  0.0000E+00  0.3824E-04  0.2088E+00  0.6730E+02  0.2761E-01  0.2810E-01  0.5940E-02  0.6027E-02  0.1631E+00  0.1631E+00  0.4558E-03  0.1523E-02  0.0000E+00  0.3161E-05  0.2000E-03  0.4842E-03  0.2495E-04  0.0000E+00  0.6233E-05  0.3845E-04  0.3558E+02  0.3537E+02  0.0000E+00  0.0000E+00  0.0000E+00  0.0000E+00  0.0000E+00  0.0000E+00  0.0000E+00  0.0000E+00  0.0000E+00  0.0000E+00  0.0000E+00  0.0000E+00  0.0000E+00  0.0000E+00  0.0000E+00  0.0000E+00  0.0000E+00  0.1927E+00  0.6511E-02  0.0000E+00  0.0000E+00  0.0000E+00  0.0000E+00  0.0000E+00  0.0000E+00  0.0000E+00  0.0000E+00  0.0000E+00  0.0000E+00  0.0000E+00  0.0000E+00  0.0000E+00  0.0000E+00
REACH    2        0    11  0.2233E+01  0.9227E-02  0.9214E-02  0.1235E-04  0.0000E+00  0.1709E-04  0.1675E-04  0.1046E-01  0.1630E-01  0.1652E-01  0.3515E-02  0.3555E-02  0.7569E-01  0.7571E-01  0.0000E+00  0.4227E-03  0.0000E+00  0.0000E+00  0.4616E-04  0.1320E-03  0.2801E-04  0.0000E+00  0.0000E+00  0.0000E+00  0.1838E+02  0.1816E+02  0.0000E+00  0.0000E+00  0.0000E+00  0.0000E+00  0.0000E+00  0.0000E+00  0.0000E+00  0.0000E+00  0.0000E+00  0.0000E+00  0.0000E+00  0.0000E+00  0.0000E+00  0.0000E+00  0.0000E+00  0.0000E+00  0.0000E+00  0.9264E-01  0.3687E-02  0.0000E+00  0.0000E+00  0.0000E+00  0.0000E+00  0.0000E+00  0.0000E+00  0.0000E+00  0.0000E+00  0.0000E+00  0.0000E+00  0.0000E+00  0.0000E+00  0.0000E+00  0.0000E+00
REACH    3        0    11  0.1834E+01  0.2527E-02  0.2519E-02  0.7896E-05  0.0000E+00  0.2800E-05  0.1998E-05  0.4454E-02  0.2087E-02  0.2133E-02  0.4495E-03  0.4573E-03  0.2752E-01  0.2747E-01  0.0000E+00  0.3318E-04  0.0000E+00  0.0000E+00  0.9709E-05  0.3460E-04  0.3002E-04  0.0000E+00  0.0000E+00  0.6233E-05  0.5034E+01  0.4965E+01  0.0000E+00  0.0000E+00  0.0000E+00  0.0000E+00  0.0000E+00  0.0000E+00  0.0000E+00  0.0000E+00  0.0000E+00  0.0000E+00  0.0000E+00  0.0000E+00  0.0000E+00  0.0000E+00  0.0000E+00  0.0000E+00  0.0000E+00  0.2963E-01  0.4919E-03  0.0000E+00  0.0000E+00  0.0000E+00  0.0000E+00  0.0000E+00  0.0000E+00  0.0000E+00  0.0000E+00  0.0000E+00  0.0000E+00  0.0000E+00  0.0000E+00  0.0000E+00  0.0000E+00
REACH    1        0  1990  0.5790E+01  0.5400E-01  0.5393E-01  0.7762E-04  0.0000E+00  0.6913E+05  0.1951E+03  0.1021E+03  0.1295E+05  0.1293E+05  0.2848E+04  0.2840E+04  0.9171E+02  0.9145E+02  0.5063E+01  0.1526E+02  0.6591E-04  0.8588E-02  0.1628E+01  0.4802E+01  0.2760E+03  0.2083E+03  0.3267E+07  0.3221E+07  0.1098E+05  0.9263E+04  0.0000E+00  0.0000E+00  0.0000E+00  0.0000E+00  0.0000E+00  0.0000E+00  0.0000E+00  0.0000E+00  0.0000E+00  0.0000E+00  0.0000E+00  0.0000E+00  0.0000E+00  0.0000E+00  0.0000E+00  0.0000E+00  0.0000E+00  0.1303E+05  0.2844E+04  0.0000E+00  0.0000E+00  0.0000E+00  0.0000E+00  0.0000E+00  0.0000E+00  0.0000E+00  0.0000E+00  0.0000E+00  0.0000E+00  0.0000E+00  0.0000E+00  0.0000E+00  0.0000E+00
REACH    2        0  1990  0.2233E+01  0.2353E-01  0.2350E-01  0.2568E-04  0.0000E+00  0.2061E+05  0.2044E+05  0.9648E+04  0.4456E+04  0.4450E+04  0.9797E+03  0.9776E+03  0.2859E+02  0.2854E+02  0.0000E+00  0.3126E+01  0.0000E+00  0.4789E-04  0.3176E+00  0.8984E+00  0.1075E+03  0.8518E+02  0.1023E+07  0.1012E+07  0.6162E+04  0.4498E+04  0.0000E+00  0.0000E+00  0.0000E+00  0.0000E+00  0.0000E+00  0.0000E+00  0.0000E+00  0.0000E+00  0.0000E+00  0.0000E+00  0.0000E+00  0.0000E+00  0.0000E+00  0.0000E+00  0.0000E+00  0.0000E+00  0.0000E+00  0.4482E+04  0.9785E+03  0.0000E+00  0.0000E+00  0.0000E+00  0.0000E+00  0.0000E+00  0.0000E+00  0.0000E+00  0.0000E+00  0.0000E+00  0.0000E+00  0.0000E+00  0.0000E+00  0.0000E+00  0.0000E+00
REACH    3        0  1990  0.1834E+01  0.1290E-01  0.1289E-01  0.1626E-04  0.0000E+00  0.2423E+05  0.2408E+05  0.1376E+05  0.4382E+04  0.4377E+04  0.9642E+03  0.9625E+03  0.3435E+02  0.3430E+02  0.0000E+00  0.1937E+01  0.0000E+00  0.1801E-04  0.1802E+00  0.5346E+00  0.1142E+03  0.9328E+02  0.1165E+07  0.1155E+07  0.3071E+04  0.1907E+04  0.0000E+00  0.0000E+00  0.0000E+00  0.0000E+00  0.0000E+00  0.0000E+00  0.0000E+00  0.0000E+00  0.0000E+00  0.0000E+00  0.0000E+00  0.0000E+00  0.0000E+00  0.0000E+00  0.0000E+00  0.0000E+00  0.0000E+00  0.4413E+04  0.9631E+03  0.0000E+00  0.0000E+00  0.0000E+00  0.0000E+00  0.0000E+00  0.0000E+00  0.0000E+00  0.0000E+00  0.0000E+00  0.0000E+00  0.0000E+00  0.0000E+00  0.0000E+00  0.0000E+00
REACH    1        0   9.5  0.5790E+01  0.1289E+00  0.1288E+00  0.7514E-04  0.0000E+00  0.3772E+06  0.9223E+03  0.1391E+03  0.2715E+05  0.2711E+05  0.5971E+04  0.5958E+04  0.2542E+03  0.2531E+03  0.8121E+01  0.2445E+02  0.1285E-03  0.7928E-02  0.5463E+01  0.1274E+02  0.7670E+03  0.6619E+03  0.2016E+08  0.1998E+08  0.2316E+05  0.1806E+05  0.0000E+00  0.0000E+00  0.0000E+00  0.0000E+00  0.0000E+00  0.0000E+00  0.0000E+00  0.0000E+00  0.0000E+00  0.0000E+00  0.0000E+00  0.0000E+00  0.0000E+00  0.0000E+00  0.0000E+00  0.0000E+00  0.0000E+00  0.2739E+05  0.5971E+04  0.0000E+00  0.0000E+00  0.0000E+00  0.0000E+00  0.0000E+00  0.0000E+00  0.0000E+00  0.0000E+00  0.0000E+00  0.0000E+00  0.0000E+00  0.0000E+00  0.0000E+00  0.0000E+00
REACH    2        0   9.5  0.2233E+01  0.5115E-01  0.5112E-01  0.2514E-04  0.0000E+00  0.1121E+06  0.1115E+06  0.1833E+05  0.1013E+05  0.1012E+05  0.2227E+04  0.2224E+04  0.7588E+02  0.7555E+02  0.0000E+00  0.4827E+01  0.0000E+00  0.9015E-04  0.1497E+01  0.3104E+01  0.3132E+03  0.2735E+03  0.6495E+07  0.6452E+07  0.1337E+05  0.8212E+04  0.0000E+00  0.0000E+00  0.0000E+00  0.0000E+00  0.0000E+00  0.0000E+00  0.0000E+00  0.0000E+00  0.0000E+00  0.0000E+00  0.0000E+00  0.0000E+00  0.0000E+00  0.0000E+00  0.0000E+00  0.0000E+00  0.0000E+00  0.1020E+05  0.2227E+04  0.0000E+00  0.0000E+00  0.0000E+00  0.0000E+00  0.0000E+00  0.0000E+00  0.0000E+00  0.0000E+00  0.0000E+00  0.0000E+00  0.0000E+00  0.0000E+00  0.0000E+00  0.0000E+00
REACH    3        0   9.5  0.1834E+01  0.3817E-01  0.3816E-01  0.1600E-04  0.0000E+00  0.1323E+06  0.1318E+06  0.2166E+05  0.8874E+04  0.8867E+04  0.1953E+04  0.1950E+04  0.1021E+03  0.1019E+03  0.0000E+00  0.3294E+01  0.0000E+00  0.3833E-04  0.6494E+00  0.1560E+01  0.2732E+03  0.2463E+03  0.6819E+07  0.6783E+07  0.9649E+04  0.4586E+04  0.0000E+00  0.0000E+00  0.0000E+00  0.0000E+00  0.0000E+00  0.0000E+00  0.0000E+00  0.0000E+00  0.0000E+00  0.0000E+00  0.0000E+00  0.0000E+00  0.0000E+00  0.0000E+00  0.0000E+00  0.0000E+00  0.0000E+00  0.8972E+04  0.1952E+04  0.0000E+00  0.0000E+00  0.0000E+00  0.0000E+00  0.0000E+00  0.0000E+00  0.0000E+00  0.0000E+00  0.0000E+00  0.0000E+00  0.0000E+00  0.0000E+00  0.0000E+00  0.0000E+00
