1
    SWAT Nov 14  VER 2023/Rev 692                                                                        0/ 0/   0      0: 0: 0

    General Input/Output section (file.cio):                                        
    5/19/2025 12:00:00 AM ARCGIS-SWAT interface AV                                  
                                                                                    
         Number of years in run:   10
         Area of watershed:        5.790 km2
1
    SWAT Nov 14  VER 2023/Rev 692                                                   

    General Input/Output section (file.cio):                                        
    5/19/2025 12:00:00 AM ARCGIS-SWAT interface AV                                  
                                                                                    
Annual Summary for Watershed in year    1 of simulation

UNIT                                    PERCO    TILE                           WATER     SED     NO3     NO3     NO3     NO3        N       P       P
TIME     PREC    SURQ    LATQ     GWQ    LATE       Q     SW       ET     PET   YIELD   YIELD    SURQ    LATQ    PERC    CROP  ORGANIC SOLUBLE ORGANIC TILENO3
         (mm)    (mm)    (mm)    (mm)    (mm)    (mm)    (mm)    (mm)    (mm)    (mm)   (t/ha)  ------------------(kg nutrient/ha)-------------------- (kg/ha)
    4    3.10    0.00    0.00    0.00    0.00    0.00   93.56    7.68   19.15    0.00    0.00    0.00    0.00    0.00    0.00     0.00    0.00    0.00    0.00
    5   11.30    0.00    0.06    0.00    0.00    0.00   87.83   16.91   53.31    0.06    0.00    0.00    0.00    0.00    0.00     0.00    0.00    0.00    0.00
    6    8.00    0.00    0.12    0.00    0.00    0.00   79.66   16.10   59.93    0.12    0.00    0.00    0.00    0.00    0.00     0.00    0.00    0.00    0.00
    7    5.20    0.00    0.02    0.00    0.00    0.00   72.91   11.95   60.47    0.02    0.00    0.00    0.00    0.00    0.00     0.00    0.00    0.00    0.00
    8   17.00    0.00    0.28    0.00    0.00    0.00   74.33   15.24   52.45    0.28    0.00    0.00    0.01    0.00    0.00     0.00    0.00    0.00    0.00
    9   23.00    0.00    0.45    0.00    0.00    0.00   77.73   19.06   45.01    0.45    0.00    0.00    0.00    0.00    0.00     0.00    0.00    0.00    0.00
   10   49.40    0.07    1.39    0.00    0.00    0.00  108.75   16.19   30.75    1.46    0.20    0.00    0.00    0.00    0.00     0.42    0.00    0.05    0.00
   11  115.80   10.27    7.75    0.00    7.22    0.00  177.56   18.99   19.43   17.95   32.40    0.00    0.16    1.33    0.00    58.69    0.00    7.19    0.00
   12  187.70   46.79   18.71    0.11   94.70    0.00  182.25   18.04   18.25   67.60  119.49    0.00    0.47   14.54    0.00   108.86    0.01   13.33    0.00

 1981  420.50   57.13   28.78    0.11  101.92    0.00  182.25  140.16  358.76   87.95  152.09    0.01    0.65   15.87    0.00   167.97    0.01   20.57    0.00
1
    SWAT Nov 14  VER 2023/Rev 692                                                   

    General Input/Output section (file.cio):                                        
    5/19/2025 12:00:00 AM ARCGIS-SWAT interface AV                                  
                                                                                    
Annual Summary for Watershed in year    2 of simulation

UNIT                                    PERCO    TILE                           WATER     SED     NO3     NO3     NO3     NO3        N       P       P
TIME     PREC    SURQ    LATQ     GWQ    LATE       Q     SW       ET     PET   YIELD   YIELD    SURQ    LATQ    PERC    CROP  ORGANIC SOLUBLE ORGANIC TILENO3
         (mm)    (mm)    (mm)    (mm)    (mm)    (mm)    (mm)    (mm)    (mm)    (mm)   (t/ha)  ------------------(kg nutrient/ha)-------------------- (kg/ha)
    1  205.90   48.85   26.40    4.01  115.75    0.00  182.41   13.36   13.36   90.46  127.46    0.00    0.44   10.59    0.00    37.70    0.00    4.62    0.00
    2  310.00  113.88   35.01   19.08  140.85    0.00  181.29   22.57   22.57  189.91  396.96    0.00    0.29    6.38    0.00     8.11    0.00    0.99    0.00
    3  142.10   33.10   20.51   28.95   68.77    0.00  178.29   26.39   26.62  118.92  104.29    0.00    0.10    1.80    0.00     0.19    0.00    0.02    0.00
    4   72.50   12.33   10.82   24.80   25.20    0.00  176.63   29.72   32.50   88.61   30.86    0.00    0.04    0.54    0.00     0.08    0.00    0.01    0.00
    5   16.80    0.25    1.30   16.49    0.00    0.00  158.37   34.45   52.67   58.27    0.84    0.00    0.00    0.00    0.00     0.00    0.00    0.00    0.00
    6    7.70    0.00    0.09    4.42    0.00    0.00  140.51   25.54   58.64   37.76    0.00    0.00    0.00    0.00    0.00     0.00    0.00    0.00    0.00
    7    6.70    0.00    0.01    1.37    0.00    0.00  128.10   19.10   61.37   29.32    0.00    0.00    0.00    0.00    0.00     0.00    0.00    0.00    0.00
    8   12.30    0.00    0.06    0.89    0.00    0.00  122.81   17.47   42.24   23.04    0.00    0.00    0.00    0.00    0.00     0.00    0.00    0.00    0.00
    9   21.90    0.14    0.29    0.48    0.00    0.00  124.66   19.38   41.35   17.66    0.28    0.00    0.00    0.00    0.00     0.00    0.00    0.00    0.00
   10   74.00    3.08    2.72    0.43    1.05    0.00  170.61   19.74   24.68   19.69   12.29    0.00    0.00    0.04    0.00     0.02    0.00    0.00    0.00
   11  115.80   19.48   12.81    0.79   54.66    0.00  180.28   17.45   17.52   44.57   72.19    0.00    0.07    1.96    0.00     0.12    0.00    0.01    0.00
   12   77.20   14.04   10.18    2.23   37.50    0.00  179.80   16.78   17.27   40.78   46.09    0.00    0.06    1.23    0.00     0.08    0.00    0.01    0.00

 1982 1062.90  245.15  120.20  103.95  443.79    0.00  179.80  261.97  410.78  758.99  791.24    0.00    0.99   22.53    0.00    46.29    0.01    5.67    0.00
1
    SWAT Nov 14  VER 2023/Rev 692                                                   

    General Input/Output section (file.cio):                                        
    5/19/2025 12:00:00 AM ARCGIS-SWAT interface AV                                  
                                                                                    
Annual Summary for Watershed in year    3 of simulation

UNIT                                    PERCO    TILE                           WATER     SED     NO3     NO3     NO3     NO3        N       P       P
TIME     PREC    SURQ    LATQ     GWQ    LATE       Q     SW       ET     PET   YIELD   YIELD    SURQ    LATQ    PERC    CROP  ORGANIC SOLUBLE ORGANIC TILENO3
         (mm)    (mm)    (mm)    (mm)    (mm)    (mm)    (mm)    (mm)    (mm)    (mm)   (t/ha)  ------------------(kg nutrient/ha)-------------------- (kg/ha)
    1  152.70   38.44   16.90    8.26   76.62    0.00  181.58   17.05   17.05   81.14  105.51    0.00    0.08    2.09    0.00    24.71    0.00    3.03    0.00
    2  196.00   92.47   15.27   13.03   64.20    0.00  180.63   24.48   24.71  141.26  370.61    0.00    0.05    1.37    0.00     5.50    0.00    0.67    0.00
    3  255.90   87.72   24.16   19.11  104.13    0.00  182.72   36.04   36.08  158.87  270.34    0.00    0.06    1.66    0.00     0.48    0.00    0.06    0.00
    4  102.50   17.35   16.16   21.73   46.09    0.00  177.68   32.68   33.15   89.76   60.63    0.00    0.03    0.58    0.00     0.15    0.00    0.02    0.00
    5   19.80    0.09    2.30   17.13    0.00    0.00  160.73   36.36   45.73   55.38    0.30    0.00    0.00    0.00    0.00     0.00    0.00    0.00    0.00
    6   12.30    0.00    0.20    4.73    0.00    0.00  146.51   26.42   49.18   35.45    0.00    0.00    0.00    0.00    0.00     0.00    0.00    0.00    0.00
    7   11.00    0.00    0.04    1.47    0.00    0.00  134.23   23.24   49.81   27.48    0.00    0.00    0.00    0.00    0.00     0.00    0.00    0.00    0.00
    8   12.80    0.00    0.09    0.75    0.00    0.00  127.06   19.88   45.63   21.50    0.00    0.00    0.00    0.00    0.00     0.00    0.00    0.00    0.00
    9   30.90    0.13    0.62    0.53    0.00    0.00  135.47   21.43   38.65   16.99    0.38    0.00    0.00    0.00    0.00     0.00    0.00    0.00    0.00
   10   48.80    1.91    1.78    0.28    0.00    0.00  155.46   25.01   32.97   16.60    4.83    0.00    0.00    0.00    0.00     0.01    0.00    0.00    0.00
   11   56.00    8.41    2.41    0.18    6.43    0.00  172.99   19.53   23.58   20.44   19.65    0.00    0.01    0.20    0.00     0.04    0.00    0.01    0.00
   12  212.00   51.55   21.66    1.32  110.96    0.00  180.73   14.21   14.29   85.13  124.58    0.00    0.11    3.03    0.00     0.28    0.00    0.03    0.00

 1983 1110.70  298.05  101.57   88.52  408.43    0.00  180.73  296.36  410.81  750.01  956.82    0.00    0.35    8.94    0.00    31.17    0.01    3.82    0.00
1
    SWAT Nov 14  VER 2023/Rev 692                                                   

    General Input/Output section (file.cio):                                        
    5/19/2025 12:00:00 AM ARCGIS-SWAT interface AV                                  
                                                                                    
Annual Summary for Watershed in year    4 of simulation

UNIT                                    PERCO    TILE                           WATER     SED     NO3     NO3     NO3     NO3        N       P       P
TIME     PREC    SURQ    LATQ     GWQ    LATE       Q     SW       ET     PET   YIELD   YIELD    SURQ    LATQ    PERC    CROP  ORGANIC SOLUBLE ORGANIC TILENO3
         (mm)    (mm)    (mm)    (mm)    (mm)    (mm)    (mm)    (mm)    (mm)    (mm)   (t/ha)  ------------------(kg nutrient/ha)-------------------- (kg/ha)
    1  211.40   55.37   26.23   11.88  113.31    0.00  181.97   14.13   14.13  112.17  163.48    0.00    0.09    2.08    0.00    27.22    0.00    3.33    0.00
    2  434.00  187.60   39.97   23.91  181.02    0.00  182.18   21.68   21.68  280.06  429.38    0.00    0.07    1.84    0.00     3.34    0.00    0.41    0.00
    3  258.50   73.41   34.50   36.99  122.61    0.00  182.67   32.00   32.05  191.15  145.90    0.00    0.04    0.76    0.00     0.40    0.00    0.05    0.00
    4   79.60    7.66   14.44   33.21   29.52    0.00  176.53   40.77   42.50  108.60   23.18    0.00    0.01    0.18    0.00     0.05    0.00    0.01    0.00
    5   41.00    1.67    2.87   22.29    1.94    0.00  168.35   44.00   51.10   79.72    4.01    0.00    0.00    0.02    0.00     0.01    0.00    0.00    0.00
    6   23.60    0.00    0.44    8.11    0.00    0.00  153.10   38.55   53.22   52.61    0.00    0.00    0.00    0.00    0.00     0.00    0.00    0.00    0.00
    7    6.90    0.00    0.07    2.28    0.00    0.00  138.68   21.32   54.41   39.50    0.00    0.00    0.00    0.00    0.00     0.00    0.00    0.00    0.00
    8   13.30    0.00    0.15    1.36    0.00    0.00  131.99   19.81   45.54   30.93    0.00    0.00    0.00    0.00    0.00     0.00    0.00    0.00    0.00
    9   15.70    0.00    0.27    0.66    0.00    0.00  129.90   17.45   36.84   23.25    0.00    0.00    0.00    0.00    0.00     0.00    0.00    0.00    0.00
   10   79.10    6.42    3.11    0.76    1.91    0.00  171.72   24.77   30.97   28.22   18.35    0.00    0.00    0.04    0.00     0.03    0.00    0.00    0.00
   11  122.50   31.08    8.38    0.66   52.50    0.00  181.78   14.85   14.92   53.87  101.12    0.00    0.03    1.24    0.00     0.12    0.00    0.02    0.00
   12  185.00   52.90   22.87    5.48   95.36    0.00  182.11   13.42   13.51   99.34  131.28    0.00    0.09    1.90    0.00     0.26    0.00    0.03    0.00

 1984 1470.60  416.11  153.29  147.60  598.17    0.00  182.11  302.74  410.88 1099.41 1016.71    0.00    0.34    8.06    0.00    31.44    0.01    3.85    0.00
1
    SWAT Nov 14  VER 2023/Rev 692                                                   

    General Input/Output section (file.cio):                                        
    5/19/2025 12:00:00 AM ARCGIS-SWAT interface AV                                  
                                                                                    
Annual Summary for Watershed in year    5 of simulation

UNIT                                    PERCO    TILE                           WATER     SED     NO3     NO3     NO3     NO3        N       P       P
TIME     PREC    SURQ    LATQ     GWQ    LATE       Q     SW       ET     PET   YIELD   YIELD    SURQ    LATQ    PERC    CROP  ORGANIC SOLUBLE ORGANIC TILENO3
         (mm)    (mm)    (mm)    (mm)    (mm)    (mm)    (mm)    (mm)    (mm)    (mm)   (t/ha)  ------------------(kg nutrient/ha)-------------------- (kg/ha)
    1  162.30   31.88   22.52   15.85   94.16    0.00  182.60   13.07   13.07   95.25   83.30    0.00    0.06    1.40    0.00    20.80    0.00    2.55    0.00
    2  217.30   68.05   24.26   19.85  108.28    0.00  181.33   16.32   16.32  141.55  194.05    0.00    0.05    1.18    0.00     8.17    0.00    1.00    0.00
    3  192.10   46.43   23.50   26.12   88.53    0.00  183.01   33.27   34.51  135.76  100.44    0.00    0.03    0.77    0.00     0.53    0.00    0.06    0.00
    4   68.20    2.65   13.11   24.31   27.48    0.00  179.21   34.77   34.93   83.80    7.77    0.00    0.02    0.23    0.00     0.05    0.00    0.01    0.00
    5   23.50    0.13    1.79   17.12    0.00    0.00  165.09   36.98   47.58   61.81    0.31    0.00    0.00    0.00    0.00     0.00    0.00    0.00    0.00
    6   15.30    0.00    0.35    4.58    0.00    0.00  151.20   28.98   45.69   40.30    0.00    0.00    0.00    0.00    0.00     0.00    0.00    0.00    0.00
    7    7.50    0.00    0.04    1.82    0.00    0.00  138.80   19.90   44.64   31.57    0.00    0.00    0.00    0.00    0.00     0.00    0.00    0.00    0.00
    8   13.10    0.03    0.17    0.84    0.00    0.00  132.90   18.73   50.56   24.51    0.06    0.00    0.00    0.00    0.00     0.00    0.00    0.00    0.00
    9   28.20    0.01    0.59    0.46    0.00    0.00  136.46   23.85   42.43   18.83    0.01    0.00    0.00    0.00    0.00     0.00    0.00    0.00    0.00
   10   36.60    3.42    0.96    0.34    0.00    0.00  149.23   19.12   34.92   18.92   14.00    0.00    0.00    0.00    0.00     0.02    0.00    0.00    0.00
   11   60.70   11.49    3.15    0.30    2.30    0.00  172.00   20.71   23.75   25.70   31.77    0.00    0.01    0.06    0.00     0.08    0.00    0.01    0.00
   12  162.60   39.49   13.85    0.76   76.70    0.00  182.69   15.87   15.97   63.96   67.82    0.00    0.07    2.01    0.00     0.15    0.00    0.02    0.00

 1985  987.40  203.57  104.29  112.35  397.44    0.00  182.69  281.58  404.37  741.95  499.53    0.00    0.23    5.64    0.00    29.79    0.00    3.65    0.00
1
    SWAT Nov 14  VER 2023/Rev 692                                                   

    General Input/Output section (file.cio):                                        
    5/19/2025 12:00:00 AM ARCGIS-SWAT interface AV                                  
                                                                                    
Annual Summary for Watershed in year    6 of simulation

UNIT                                    PERCO    TILE                           WATER     SED     NO3     NO3     NO3     NO3        N       P       P
TIME     PREC    SURQ    LATQ     GWQ    LATE       Q     SW       ET     PET   YIELD   YIELD    SURQ    LATQ    PERC    CROP  ORGANIC SOLUBLE ORGANIC TILENO3
         (mm)    (mm)    (mm)    (mm)    (mm)    (mm)    (mm)    (mm)    (mm)    (mm)   (t/ha)  ------------------(kg nutrient/ha)-------------------- (kg/ha)
    1  296.10   94.87   31.67    8.08  151.49    0.00  181.69   14.60   14.61  151.29  251.51    0.00    0.11    2.75    0.00    28.77    0.00    3.52    0.00
    2  312.30  124.36   32.96   22.40  134.10    0.00  183.01   20.07   20.07  206.22  383.07    0.00    0.06    1.36    0.00     1.10    0.00    0.14    0.00
    3  182.80   30.94   29.78   32.71  101.88    0.00  176.77   31.62   31.89  136.11   61.76    0.00    0.04    0.73    0.00     0.16    0.00    0.02    0.00
    4  117.50   22.44   14.01   29.51   44.03    0.00  182.67   33.34   33.69  113.59   75.11    0.00    0.02    0.31    0.00     0.07    0.00    0.01    0.00
    5   35.30    0.59    5.25   21.60    8.42    0.00  164.86   41.81   55.56   76.68    0.75    0.00    0.01    0.07    0.00     0.03    0.00    0.00    0.00
    6   10.10    0.00    0.51    8.72    0.00    0.00  144.67   30.23   61.90   50.63    0.00    0.00    0.00    0.00    0.00     0.00    0.00    0.00    0.00
    7   16.80    0.00    0.16    2.22    0.00    0.00  134.89   26.39   54.52   37.55    0.00    0.00    0.00    0.00    0.00     0.00    0.00    0.00    0.00
    8   23.10    1.80    0.47    1.13    0.00    0.00  131.35   24.29   56.91   31.36    5.73    0.00    0.00    0.00    0.00     0.01    0.00    0.00    0.00
    9   25.00    0.10    0.64    0.77    0.00    0.00  134.02   21.59   38.41   22.76    0.17    0.00    0.00    0.00    0.00     0.00    0.00    0.00    0.00
   10   37.10    1.26    0.94    0.48    0.00    0.00  147.80   20.77   28.90   19.77    5.85    0.00    0.00    0.00    0.00     0.00    0.00    0.00    0.00
   11   61.50    8.48    4.13    0.48    5.54    0.00  170.51   20.58   21.61   26.04   15.70    0.00    0.01    0.13    0.00     0.03    0.00    0.00    0.00
   12  148.70   36.92   10.92    0.91   65.70    0.00  182.16   17.13   17.29   60.23  105.91    0.00    0.05    1.63    0.00     0.14    0.00    0.02    0.00

 1986 1266.30  321.75  131.45  129.02  511.15    0.00  182.16  302.42  435.36  932.24  905.56    0.00    0.29    6.98    0.00    30.30    0.00    3.71    0.00
1
    SWAT Nov 14  VER 2023/Rev 692                                                   

    General Input/Output section (file.cio):                                        
    5/19/2025 12:00:00 AM ARCGIS-SWAT interface AV                                  
                                                                                    
Annual Summary for Watershed in year    7 of simulation

UNIT                                    PERCO    TILE                           WATER     SED     NO3     NO3     NO3     NO3        N       P       P
TIME     PREC    SURQ    LATQ     GWQ    LATE       Q     SW       ET     PET   YIELD   YIELD    SURQ    LATQ    PERC    CROP  ORGANIC SOLUBLE ORGANIC TILENO3
         (mm)    (mm)    (mm)    (mm)    (mm)    (mm)    (mm)    (mm)    (mm)    (mm)   (t/ha)  ------------------(kg nutrient/ha)-------------------- (kg/ha)
    1  265.30   84.65   29.76    7.63  131.23    0.00  182.97   16.98   16.98  139.03  248.01    0.00    0.10    2.41    0.00    28.44    0.00    3.48    0.00
    2  224.90   85.58   26.65   20.17   97.67    0.00  182.27   18.79   18.79  158.60  179.57    0.00    0.06    1.15    0.00     0.91    0.00    0.11    0.00
    3   92.20   14.15   14.89   24.83   41.39    0.00  169.14   39.46   43.80   90.60   40.72    0.00    0.02    0.41    0.00     0.07    0.00    0.01    0.00
    4   34.80    6.30    1.91   17.03    0.01    0.00  164.20   32.56   40.04   61.23   33.18    0.00    0.00    0.00    0.00     0.03    0.00    0.00    0.00
    5   14.40    0.00    0.30    6.02    0.00    0.00  145.35   33.02   63.85   38.77    0.00    0.00    0.00    0.00    0.00     0.00    0.00    0.00    0.00
    6    8.30    0.00    0.04    1.42    0.00    0.00  133.50   20.14   57.09   27.24    0.00    0.00    0.00    0.00    0.00     0.00    0.00    0.00    0.00
    7   10.30    0.00    0.09    0.62    0.00    0.00  123.39   20.32   54.66   21.97    0.00    0.00    0.00    0.00    0.00     0.00    0.00    0.00    0.00
    8   14.90    0.00    0.18    0.35    0.00    0.00  116.86   21.20   64.51   17.16    0.00    0.00    0.00    0.00    0.00     0.00    0.00    0.00    0.00
    9   23.50    0.01    0.37    0.14    0.00    0.00  118.59   21.20   49.29   13.03    0.01    0.00    0.00    0.00    0.00     0.00    0.00    0.00    0.00
   10   34.40    1.15    1.30    0.19    0.00    0.00  131.95   18.68   28.08   12.64    2.11    0.00    0.00    0.00    0.00     0.00    0.00    0.00    0.00
   11   82.70    4.65    4.26    0.15   11.50    0.00  173.03   18.55   20.10   16.54   12.60    0.00    0.01    0.34    0.00     0.02    0.00    0.00    0.00
   12  113.70   13.67   15.65    1.08   62.48    0.00  180.20   14.37   14.49   39.24   33.62    0.00    0.08    1.77    0.00     0.05    0.00    0.01    0.00

 1987  919.40  210.15   95.38   79.63  344.28    0.00  180.20  275.28  471.66  636.05  549.82    0.00    0.27    6.08    0.00    29.52    0.00    3.61    0.00
1
    SWAT Nov 14  VER 2023/Rev 692                                                   

    General Input/Output section (file.cio):                                        
    5/19/2025 12:00:00 AM ARCGIS-SWAT interface AV                                  
                                                                                    
Annual Summary for Watershed in year    8 of simulation

UNIT                                    PERCO    TILE                           WATER     SED     NO3     NO3     NO3     NO3        N       P       P
TIME     PREC    SURQ    LATQ     GWQ    LATE       Q     SW       ET     PET   YIELD   YIELD    SURQ    LATQ    PERC    CROP  ORGANIC SOLUBLE ORGANIC TILENO3
         (mm)    (mm)    (mm)    (mm)    (mm)    (mm)    (mm)    (mm)    (mm)    (mm)   (t/ha)  ------------------(kg nutrient/ha)-------------------- (kg/ha)
    1  186.60   38.80   20.73    4.16  104.90    0.00  181.02   16.70   16.70   77.80   91.23    0.00    0.08    2.35    0.00    21.59    0.00    2.64    0.00
    2  190.60   72.26   23.75   16.45   75.05    0.00  180.17   25.74   25.90  134.68  252.74    0.00    0.06    1.16    0.00     7.33    0.00    0.90    0.00
    3  149.20   35.89   13.80   19.87   60.07    0.00  181.04   36.94   37.46   99.49   93.72    0.00    0.03    0.80    0.00     0.16    0.00    0.02    0.00
    4   87.10   11.10   10.98   17.39   31.59    0.00  178.26   38.72   40.02   71.65   26.59    0.00    0.02    0.40    0.00     0.05    0.00    0.01    0.00
    5   26.40    0.11    1.99   11.25    0.00    0.00  159.38   44.51   63.69   45.17    0.25    0.00    0.00    0.00    0.00     0.00    0.00    0.00    0.00
    6    6.40    0.00    0.30    1.85    0.00    0.00  142.11   23.67   58.38   28.63    0.00    0.00    0.00    0.00    0.00     0.00    0.00    0.00    0.00
    7    5.90    0.00    0.02    0.84    0.00    0.00  125.60   22.41   68.18   23.17    0.00    0.00    0.00    0.00    0.00     0.00    0.00    0.00    0.00
    8    9.60    0.00    0.10    0.45    0.00    0.00  119.66   15.40   55.15   18.20    0.00    0.00    0.00    0.00    0.00     0.00    0.00    0.00    0.00
    9   21.10    0.01    0.38    0.36    0.00    0.00  121.21   19.07   39.87   14.13    0.02    0.00    0.00    0.00    0.00     0.00    0.00    0.00    0.00
   10   37.40    0.95    1.32    0.23    0.00    0.00  138.89   17.35   25.66   13.25    2.76    0.00    0.00    0.00    0.00     0.00    0.00    0.00    0.00
   11   59.40    2.07    2.57    0.18    2.80    0.00  170.82   18.58   19.26   12.85    3.47    0.00    0.00    0.08    0.00     0.01    0.00    0.00    0.00
   12  129.90   20.37   13.07    0.59   67.39    0.00  180.78   14.62   15.22   41.53   44.03    0.00    0.06    1.96    0.00     0.08    0.00    0.01    0.00

 1988  909.60  181.54   89.01   73.62  341.80    0.00  180.78  293.70  465.49  580.55  514.82    0.00    0.27    6.74    0.00    29.22    0.00    3.57    0.00
1
    SWAT Nov 14  VER 2023/Rev 692                                                   

    General Input/Output section (file.cio):                                        
    5/19/2025 12:00:00 AM ARCGIS-SWAT interface AV                                  
                                                                                    
Annual Summary for Watershed in year    9 of simulation

UNIT                                    PERCO    TILE                           WATER     SED     NO3     NO3     NO3     NO3        N       P       P
TIME     PREC    SURQ    LATQ     GWQ    LATE       Q     SW       ET     PET   YIELD   YIELD    SURQ    LATQ    PERC    CROP  ORGANIC SOLUBLE ORGANIC TILENO3
         (mm)    (mm)    (mm)    (mm)    (mm)    (mm)    (mm)    (mm)    (mm)    (mm)   (t/ha)  ------------------(kg nutrient/ha)-------------------- (kg/ha)
    1  251.30   77.56   27.65    5.48  126.06    0.00  181.64   16.43   16.43  124.49  252.49    0.00    0.10    2.66    0.00    27.94    0.00    3.42    0.00
    2  280.20  106.79   30.51   18.96  123.88    0.00  180.31   21.10   21.10  179.40  313.98    0.00    0.07    1.54    0.00     1.17    0.00    0.14    0.00
    3  232.70   51.68   29.10   29.14  119.46    0.00  182.03   30.51   30.51  147.24  119.48    0.00    0.04    1.00    0.00     0.22    0.00    0.03    0.00
    4   60.00    3.81   12.08   27.81   15.77    0.00  177.13   40.62   43.02   87.60    7.44    0.00    0.01    0.12    0.00     0.02    0.00    0.00    0.00
    5   16.70    0.02    1.18   18.38    0.00    0.00  162.34   31.18   43.32   63.20    0.05    0.00    0.00    0.00    0.00     0.00    0.00    0.00    0.00
    6    9.30    0.00    0.15    5.33    0.00    0.00  144.84   26.75   55.18   41.63    0.00    0.00    0.00    0.00    0.00     0.00    0.00    0.00    0.00
    7    4.60    0.00    0.01    1.47    0.00    0.00  130.16   19.28   71.11   31.89    0.00    0.00    0.00    0.00    0.00     0.00    0.00    0.00    0.00
    8   10.90    0.00    0.04    1.01    0.00    0.00  121.48   19.54   50.84   25.11    0.00    0.00    0.00    0.00    0.00     0.00    0.00    0.00    0.00
    9   19.00    0.00    0.24    0.56    0.00    0.00  122.83   17.19   39.79   19.04    0.00    0.00    0.00    0.00    0.00     0.00    0.00    0.00    0.00
   10   71.10    1.64    2.62    0.45    0.00    0.00  165.13   23.58   28.25   19.35    4.32    0.00    0.00    0.00    0.00     0.01    0.00    0.00    0.00
   11   61.40    7.22    5.82    0.66   16.82    0.00  176.02   20.56   21.16   25.38   20.65    0.00    0.02    0.39    0.00     0.03    0.00    0.00    0.00
   12   38.40    1.86    3.69    0.66   10.14    0.00  175.27   23.64   28.40   17.15    6.66    0.00    0.01    0.25    0.00     0.01    0.00    0.00    0.00

 1989 1055.60  250.59  113.08  109.90  412.14    0.00  175.27  290.39  449.13  781.48  725.06    0.00    0.27    5.96    0.00    29.38    0.00    3.59    0.00
1
    SWAT Nov 14  VER 2023/Rev 692                                                   

    General Input/Output section (file.cio):                                        
    5/19/2025 12:00:00 AM ARCGIS-SWAT interface AV                                  
                                                                                    
Annual Summary for Watershed in year   10 of simulation

UNIT                                    PERCO    TILE                           WATER     SED     NO3     NO3     NO3     NO3        N       P       P
TIME     PREC    SURQ    LATQ     GWQ    LATE       Q     SW       ET     PET   YIELD   YIELD    SURQ    LATQ    PERC    CROP  ORGANIC SOLUBLE ORGANIC TILENO3
         (mm)    (mm)    (mm)    (mm)    (mm)    (mm)    (mm)    (mm)    (mm)    (mm)   (t/ha)  ------------------(kg nutrient/ha)-------------------- (kg/ha)
    1  138.70   16.39   15.67    1.30   80.45    0.00  180.89   16.30   16.37   44.92   33.59    0.00    0.07    2.00    0.00    12.36    0.00    1.51    0.00
    2   73.20   11.12   10.86    5.68   34.98    0.00  180.80   18.31   19.27   42.25   37.09    0.00    0.04    0.75    0.00     5.53    0.00    0.68    0.00
    3   67.90    7.81    8.75   10.25   22.97    0.00  176.23   35.35   37.94   46.16   20.15    0.00    0.03    0.47    0.00     2.24    0.00    0.27    0.00
    4   49.80    6.06    4.07    8.17   11.40    0.00  166.15   38.76   45.59   37.36   25.50    0.00    0.01    0.24    0.00     1.99    0.00    0.24    0.00
    5   27.00    0.29    1.07    1.85    0.00    0.00  157.68   34.48   52.17   21.23    1.03    0.00    0.00    0.00    0.00     0.07    0.00    0.01    0.00
    6   21.50    0.08    0.45    0.72    0.00    0.00  153.25   25.34   41.54   15.91    0.27    0.00    0.00    0.00    0.00     0.02    0.00    0.00    0.00
    7    8.10    0.00    0.25    0.14    0.00    0.00  134.79   26.57   61.41   12.60    0.00    0.00    0.00    0.00    0.00     0.00    0.00    0.00    0.00
    8   12.10    0.00    0.11    0.05    0.00    0.00  128.77   17.93   45.53    9.76    0.00    0.00    0.00    0.00    0.00     0.00    0.00    0.00    0.00
    9   19.60    0.00    0.37    0.04    0.00    0.00  127.06   20.91   38.49    7.66    0.00    0.00    0.00    0.00    0.00     0.00    0.00    0.00    0.00
   10   58.40    0.87    1.74    0.00    0.00    0.00  159.80   22.12   29.77    8.41    2.32    0.00    0.00    0.00    0.00     0.18    0.00    0.02    0.00
   11    2.40    0.00    0.21    0.00    0.00    0.00  161.18    0.96    1.25    0.54    0.00    0.00    0.00    0.00    0.00     0.00    0.00    0.00    0.00

 1990  478.70   42.62   43.55   28.21  149.80    0.00  161.18  257.02  389.31  246.79  119.95    0.00    0.15    3.47    0.00    22.39    0.00    2.74    0.00
1
    SWAT Nov 14  VER 2023/Rev 692                                                   

    General Input/Output section (file.cio):                                        
    5/19/2025 12:00:00 AM ARCGIS-SWAT interface AV                                  
                                                                                    
    FINAL VALUES

1
    SWAT Nov 14  VER 2023/Rev 692                                                   

    General Input/Output section (file.cio):                                        
    5/19/2025 12:00:00 AM ARCGIS-SWAT interface AV                                  
                                                                                    
                                            Average Plant Values (kg/ha)

  HRU       1 SUB   1 PJNL  Yld =     0.0 BIOM =      0.4
  HRU       2 SUB   1 PJNL  Yld =     0.0 BIOM =      0.4
  HRU       3 SUB   1 WETN  Yld =     0.0 BIOM =      0.0
  HRU       4 SUB   1 BARR  Yld =     0.0 BIOM =      0.0
  HRU       5 SUB   1 BARR  Yld =     0.0 BIOM =      0.0
  HRU       6 SUB   2 WETN  Yld =     0.0 BIOM =      0.0
  HRU       7 SUB   2 PJNL  Yld =     0.0 BIOM =      0.4
  HRU       8 SUB   2 PJNL  Yld =     0.0 BIOM =      0.4
  HRU       9 SUB   2 BARR  Yld =     0.0 BIOM =      0.0
  HRU      10 SUB   2 BARR  Yld =     0.0 BIOM =      0.0
  HRU      11 SUB   3 PJNL  Yld =     0.0 BIOM =      0.4
  HRU      12 SUB   3 PJNL  Yld =     0.0 BIOM =      0.4
  HRU      13 SUB   3 BARR  Yld =     0.0 BIOM =      0.0
  HRU      14 SUB   3 BARR  Yld =     0.0 BIOM =      0.0
  HRU      15 SUB   3 WETN  Yld =     0.0 BIOM =      0.0
  HRU      16 SUB   3 ES10  Yld =     0.0 BIOM =      0.0
  HRU      17 SUB   3 ES9   Yld =     0.0 BIOM =      0.0
  HRU      18 SUB   3 ES9   Yld =     0.0 BIOM =      0.0
  HRU      19 SUB   3 ES11  Yld =     0.0 BIOM =      0.0
  HRU      20 SUB   3 ES12  Yld =     0.0 BIOM =      0.0
  HRU      21 SUB   3 ES13  Yld =     0.0 BIOM =      0.0

    HRU STATISTICS

                AVE ANNUAL VALUES

   HRU  SUB  SOIL       AREAkm2    CN     AWCmm   USLE_LS  IRRmm  AUTONkh AUTOPkh  MIXEF PRECmm SURQGENmm   GWQmm    ETmm   SEDth  NO3kgh  ORGNkgh BIOMth   YLDth  SURQmm
      1   1   I-Bh-Tv-   .138E+01   86.92  180.00    7.86    0.00    0.00    0.00    0.21 1015.17  234.30  119.61  273.01  829.56    0.47   49.50    0.00    0.00  234.30
      2   1   I-Bh-Tv-   .336E-01   86.92  180.00    0.07    0.00    0.00    0.00    0.21 1015.17  236.58    0.00  274.57    1.15    0.00   12.61    0.00    0.00  236.58
      3   1   I-Bh-Tv-   .717E-01   86.92  180.00    0.07    0.00    0.00    0.00    0.21 1015.17  236.73    0.00  272.44    1.86    0.00   17.71    0.00    0.00  236.73
      4   1   I-Bh-Tv-   .230E+00   86.92  180.00    9.50    0.00    0.00    0.00    0.21 1015.17  234.24  133.25  270.33  825.36    0.52   49.49    0.00    0.00  234.24
      5   1   I-Bh-Tv-   .250E-02   86.92  180.00    0.07    0.00    0.00    0.00    0.21 1015.17  236.76    0.00  272.01    0.87    0.01   10.03    0.00    0.00  236.76
      6   2   I-Bh-Tv-   .225E+00   86.92  180.00    0.07    0.00    0.00    0.00    0.21 1015.17  236.71    0.00  272.88    2.13    0.00   19.33    0.00    0.00  236.71
      7   2   I-Bh-Tv-   .909E+00   86.92  180.00    4.45    0.00    0.00    0.00    0.21 1015.17  234.90   87.69  273.93  449.94    0.34   48.56    0.00    0.00  234.90
      8   2   I-Bh-Tv-   .272E-01   86.92  180.00    0.07    0.00    0.00    0.00    0.21 1015.17  236.56    0.00  275.04    1.12    0.00   12.36    0.00    0.00  236.56
      9   2   I-Bh-Tv-   .106E+01   86.92  180.00    6.50    0.00    0.00    0.00    0.21 1015.17  234.70  107.92  271.13  668.84    0.42   49.20    0.00    0.00  234.70
     10   2   I-Bh-Tv-   .688E-02   86.92  180.00    0.07    0.00    0.00    0.00    0.21 1015.17  236.74    0.00  272.46    0.98    0.01   11.08    0.00    0.00  236.74
     11   3   I-Bh-Tv-   .128E+01   86.92  180.00    7.36    0.00    0.00    0.00    0.21 1015.17  229.08  388.24  320.69  750.35    0.44   49.33    0.00    0.00  229.08
     12   3   I-Bh-Tv-   .198E-01   86.92  180.00    0.07    0.00    0.00    0.00    0.21 1015.17  231.89  378.01  322.29    1.06    0.00   11.85    0.00    0.00  231.89
     13   3   I-Bh-Tv-   .426E+00   86.92  180.00    8.04    0.00    0.00    0.00    0.21 1015.17  234.44  421.90  271.07  748.62    0.47   49.36    0.00    0.00  234.44
     14   3   I-Bh-Tv-   .297E-02   86.92  180.00    0.07    0.00    0.00    0.00    0.21 1015.17  236.74  411.51  272.58    0.88    0.01   10.21    0.00    0.00  236.74
     15   3   I-Bh-Tv-   .256E-01   86.92  180.00    0.07    0.00    0.00    0.00    0.21 1015.17  236.71  442.84  273.01    1.65    0.00   16.28    0.00    0.00  236.71
     16   3   I-Bh-Tv-   .337E-01   86.92  180.00    6.34    0.00    0.00    0.00    0.21 1015.17  234.72  472.88  271.28  439.77    0.42   48.51    0.00    0.00  234.72
     17   3   I-Bh-Tv-   .156E-01   86.92  180.00    6.52    0.00    0.00    0.00    0.21 1015.17  234.69  473.02  271.26  412.29    0.42   48.40    0.00    0.00  234.69
     18   3   I-Bh-Tv-   .313E-03   86.92  180.00    0.07    0.00    0.00    0.00    0.21 1015.17  236.74  464.14  272.58    0.66    0.01    7.95    0.00    0.00  236.74
     19   3   I-Bh-Tv-   .183E-01   86.92  180.00   10.83    0.00    0.00    0.00    0.21 1015.17  234.01  476.04  270.72  697.64    0.56   49.26    0.00    0.00  234.01
     20   3   I-Bh-Tv-   .688E-02   86.92  180.00   14.52    0.00    0.00    0.00    0.21 1015.17  233.54  478.34  270.29  831.23    0.68   49.49    0.00    0.00  233.54
     21   3   I-Bh-Tv-   .187E-02   86.92  180.00   15.10    0.00    0.00    0.00    0.21 1015.17  233.48  478.69  270.22  739.98    0.70   49.34    0.00    0.00  233.48



                AVE MONTHLY BASIN VALUES
                   SNOW                      WATER               SED
  MON     RAIN     FALL   SURF Q    LAT Q    YIELD       ET    YIELD      PET
          (MM)     (MM)     (MM)     (MM)     (MM)     (MM)   (T/HA)     (MM)
    1   207.81     0.00    54.09    24.17   101.84    15.40   150.73    15.41
    2   246.76     0.00    95.04    26.37   162.48    20.84   281.92    20.99
    3   174.82     0.00    42.35    22.11   124.92    33.51   106.31    34.54
    4    72.33     0.00     9.61    10.46    79.52    35.31    31.10    39.06
    5    23.22     0.00     0.31     1.81    50.03    35.37     0.75    52.90
    6    12.25     0.00     0.01     0.26    33.03    26.17     0.03    54.07
    7     8.30     0.00     0.00     0.07    25.51    21.05     0.00    58.06
    8    13.91     0.00     0.18     0.16    20.19    18.95     0.58    50.94
    9    22.79     0.00     0.04     0.42    15.38    20.11     0.09    41.01
   10    52.63     0.00     2.08     1.79    15.83    20.73     6.70    29.49
   11    81.42     0.00    11.38     5.68    26.90    18.83    34.14    20.14
   12   139.47     0.00    30.84    14.51    57.22    16.45    75.50    17.19

     AVE ANNUAL BASIN STRESS DAYS
               WATER STRESS DAYS =     0.02
               TEMPERATURE STRESS DAYS =   146.15
               NITROGEN STRESS DAYS =     0.00
               PHOSPHORUS STRESS DAYS =     0.00
               AERATION STRESS DAYS =     0.00
1
    SWAT Nov 14  VER 2023/Rev 692                                                   

    General Input/Output section (file.cio):                                        
    5/19/2025 12:00:00 AM ARCGIS-SWAT interface AV                                  
                                                                                    
         AVE ANNUAL BASIN VALUES

              PRECIP =   1015.2 MM
              SNOW FALL =    0.00 MM
              SNOW MELT =     0.00 MM
              SUBLIMATION =     0.00 MM
              SURFACE RUNOFF Q =   233.48 MM
              LATERAL SOIL Q =  102.82 MM
              TILE Q =     0.00 MM
              GROUNDWATER (SHAL AQ) Q =    91.53 MM
              GROUNDWATER (DEEP AQ) Q =   265.83 MM
              REVAP (SHAL AQ => SOIL/PLANTS) =   45.93 MM
              DEEP AQ RECHARGE =   267.52 MM
              TOTAL AQ RECHARGE =  388.60 MM
              TOTAL WATER YLD =   693.66 MM
              PERCOLATION OUT OF SOIL =  388.90 MM
              ET =    283.3 MM
              PET =    441.1MM
              TRANSMISSION LOSSES =     0.00 MM
              SEPTIC INFLOW =     0.00 MM
              TOTAL SEDIMENT LOADING =    653.42 T/HA
              TILE FROM IMPOUNDED WATER =     0.000 (MM)
              EVAPORATION FROM IMPOUNDED WATER =     0.000 (MM)
              SEEPAGE INTO SOIL FROM IMPOUNDED WATER =    0.000 (MM)
              OVERFLOW FROM IMPOUNDED WATER =    0.000 (MM)
1
    SWAT Nov 14  VER 2023/Rev 692                                                   

    General Input/Output section (file.cio):                                        
    5/19/2025 12:00:00 AM ARCGIS-SWAT interface AV                                  
                                                                                    
              AVE ANNUAL BASIN VALUES


              NUTRIENTS
                   ORGANIC N =    46.921 (KG/HA)
                   ORGANIC P =     5.744 (KG/HA)
                   NO3 YIELD (SQ) =     0.003 (KG/HA)
                   NO3 YIELD (LAT) =    0.400 (KG/HA)
                   NO3 YIELD (TILE) =      0.000 (KG/HA)
                   SOLP YIELD (TILE) =    0.000(KG/HA)
                   SOLP YIELD (SURF INLET RISER) =    0.000 (KG/HA)
                   SOL P YIELD =    0.005 (KG/HA)
                   NO3 LEACHED =     9.466 (KG/HA)
                   P LEACHED =     0.162 (KG/HA)
                   N UPTAKE =     0.000 (KG/HA)
                   P UPTAKE =    0.000 (KG/HA)
                   NO3 YIELD (GWQ) =     0.037 (KG/HA)
                   ACTIVE TO SOLUTION P FLOW =         1.853 (KG/HA)
                   ACTIVE TO STABLE P FLOW =         4.186 (KG/HA)
                   N FERTILIZER APPLIED =     0.000 (KG/HA)
                   P FERTILIZER APPLIED =     0.000 (KG/HA)
                   N FIXATION =     0.000 (KG/HA)
                   DENITRIFICATION =     0.000 (KG/HA)
                   HUMUS MIN ON ACTIVE ORG N =     7.844 (KG/HA)
                   ACTIVE TO STABLE ORG N =    -4.098 (KG/HA)
                   HUMUS MIN ON ACTIVE ORG P =    1.344 (KG/HA)
                   MIN FROM FRESH ORG N =    0.000 (KG/HA)
                   MIN FROM FRESH ORG P =    0.000 (KG/HA)
                   NO3 IN RAINFALL =       0.000 (KG/HA)
                   INITIAL NO3 IN SOIL =      35.560 (KG/HA)
                   FINAL NO3 IN SOIL =         8.258 (KG/HA)
                   INITIAL ORG N IN SOIL =   12599.999 (KG/HA)
                   FINAL ORG N IN SOIL =     12077.710 (KG/HA)
                   INITIAL MIN P IN SOIL =    1789.938 (KG/HA)
                   FINAL MIN P IN SOIL =      1755.513 (KG/HA)
                   INITIAL ORG P IN SOIL =    1543.500 (KG/HA)
                   FINAL ORG P IN SOIL =    1475.909 (KG/HA)
                   NO3 IN FERT =     0.000 (KG/HA)
                   AMMONIA IN FERT =     0.000 (KG/HA)
                   ORG N IN FERT =     0.000 (KG/HA)
                   MINERAL P IN FERT =     0.000 (KG/HA)
                   ORG P IN FERT =     0.000 (KG/HA)
                   N REMOVED IN YIELD =     0.000 (KG/HA)
                   P REMOVED IN YIELD =     0.000 (KG/HA)
                   AMMONIA VOLATILIZATION =     0.000 (KG/HA)
                   AMMONIA NITRIFICATION =      0.000 (KG/HA)
                   NO3 EVAP-LAYER 2 TO 1 =    0.660

                   DIE-GRO P Q =           0.0 (No/M2)
                   DIE-GRO LP Q =           0.0 (No/M2)
                   DIE-GRO P SED =          0.0 (No/M2)
                   DIE-GRO LP SED =          0.0 (No/M2)
                   BACT P RUNOFF =          0.0 (No/M2)
                   BACT LP RUNOFF =          0.0 (No/M2)
                   BACT P SEDIMENT =          0.0 (No/M2)
                   BACT LP SEDIMENT =          0.0 (No/M2)
                   BACT P INCORP =          0.0 (No/M2)
                   BACT LP INCORP =          0.0 (No/M2)

                   NITRATE SEPTIC =         0.00 (kg/ha)
                   AMMONIA SEPTIC =         0.00 (kg/ha)
                   ORG N SEPTIC =         0.00 (kg/ha)
                   FRESH ORGN SEPTIC =         0.00 (kg/ha)
                   ORG P SEPTIC =         0.00 (kg/ha)
                   FRESH ORGP SEPTIC =         0.00 (kg/ha)
                   SOL P SEPTIC =         0.00 (kg/ha)
                   BOD SEPTIC =         0.00 (kg/ha)
