1
    SWAT Nov 14  VER 2023/Rev 692                                                                        0/ 0/   0      0: 0: 0

    General Input/Output section (file.cio):                                        
    5/19/2025 12:00:00 AM ARCGIS-SWAT interface AV                                  
                                                                                    


LULC  HRU       GIS  SUB  MGT  MON   AREAkm2  PRECIPmm SNOFALLmm SNOMELTmm     IRRmm     PETmm      ETmm SW_INITmm  SW_ENDmm    PERCmm GW_RCHGmm DA_RCHGmm   REVAPmm  SA_IRRmm  DA_IRRmm   SA_STmm   DA_STmmSURQ_GENmmSURQ_CNTmm   TLOSSmm LATQGENmm    GW_Qmm    WYLDmm   DAILYCN TMP_AVdgC TMP_MXdgC TMP_MNdgCSOL_TMPdgCSOLARMJ/m2  SYLDt/ha  USLEt/haN_APPkg/haP_APPkg/haNAUTOkg/haPAUTOkg/ha NGRZkg/ha PGRZkg/haNCFRTkg/haPCFRTkg/haNRAINkg/ha NFIXkg/ha F-MNkg/ha A-MNkg/ha A-SNkg/ha F-MPkg/haAO-LPkg/ha L-APkg/ha A-SPkg/ha DNITkg/ha  NUPkg/ha  PUPkg/ha ORGNkg/ha ORGPkg/ha SEDPkg/haNSURQkg/haNLATQkg/ha NO3Lkg/haNO3GWkg/ha SOLPkg/ha P_GWkg/ha    W_STRS  TMP_STRS    N_STRS    P_STRS  BIOMt/ha       LAI   YLDt/ha  BACTPct   BACTLPct WTAB_CLIm WTAB_SOLm     SNOmm CMUPkg/haCMTOTkg/ha   QTILEmm TNO3kg/ha LNO3kg/ha  GW_Q_Dmm LATQCNTmm TVAPkg/ha
PJNL    1 000010001    1    0    4.13850E+01     3.100     0.000     0.000     0.000    19.115     7.109    32.079    94.130     0.000     0.000     0.000     2.558     0.000     0.000   997.442  2000.000     0.000     0.000     0.000     0.003     0.000     0.003    30.222     1.600     4.087    -0.887     3.519     4.669     0.000     0.000     0.000     0.000     0.000     0.000     0.000     0.000     0.000     0.000     0.000     0.000     0.000     0.245    -0.001     0.000     0.042     0.666     8.265     0.000     0.000     0.000     0.000     0.000     0.000     0.000     0.000     0.000     0.000     0.000     0.000     0.000     0.000     0.000     0.000     0.000     0.000     0.000 .00000E+00 .00000E+00 0.191E+01 0.429E+04 0.000E+00 0.000E+00 0.000E+00 0.000E+00 0.000E+00 0.535E-04     0.000     0.003     0.000
PJNL    2 000010002    1    0    4.33594E-01     3.100     0.000     0.000     0.000    19.115     7.109    32.080    94.136     0.000     0.000     0.000     2.558     0.000     0.000   997.442  2000.000     0.000     0.000     0.000     0.000     0.000     0.000    30.222     1.600     4.087    -0.887     3.519     4.669     0.000     0.000     0.000     0.000     0.000     0.000     0.000     0.000     0.000     0.000     0.000     0.000     0.000     0.245    -0.001     0.000     0.042     0.666     8.265     0.000     0.000     0.000     0.000     0.000     0.000     0.000     0.000     0.000     0.000     0.000     0.000     0.000     0.000     0.000     0.000     0.000     0.000     0.000 .00000E+00 .00000E+00 0.191E+01 0.429E+04 0.000E+00 0.000E+00 0.000E+00 0.000E+00 0.000E+00 0.000E+00     0.000     0.000     0.000
WETN    3 000010003    1    0    4.71719E-01     3.100     0.000     0.000     0.000    19.115     7.109    32.080    94.136     0.000     0.000     0.000     0.382     0.000     0.000   999.618  2000.000     0.000     0.000     0.000     0.000     0.000     0.000    30.222     1.600     4.087    -0.887     3.519     4.669     0.000     0.000     0.000     0.000     0.000     0.000     0.000     0.000     0.000     0.000     0.000     0.000     0.000     0.245    -0.001     0.000     0.042     0.666     8.265     0.000     0.000     0.000     0.000     0.000     0.000     0.000     0.000     0.000     0.000     0.000     0.000     0.000     0.000     0.000     0.000     0.000     0.000     0.000 .00000E+00 .00000E+00 0.191E+01 0.429E+04 0.000E+00 0.000E+00 0.000E+00 0.000E+00 0.000E+00 0.000E+00     0.000     0.000     0.000
BARR    4 000010004    1    0    4.22984E+00     3.100     0.000     0.000     0.000    19.115     7.109    32.079    94.130     0.000     0.000     0.000     2.602     0.000     0.000   997.398  2000.000     0.000     0.000     0.000     0.003     0.000     0.003    30.222     1.600     4.087    -0.887     3.519     4.669     0.000     0.000     0.000     0.000     0.000     0.000     0.000     0.000     0.000     0.000     0.000     0.000     0.000     0.245    -0.001     0.000     0.042     0.666     8.265     0.000     0.000     0.000     0.000     0.000     0.000     0.000     0.000     0.000     0.000     0.000     0.000     0.000     0.000     0.000     0.000     0.000     0.000     0.000 .00000E+00 .00000E+00 0.191E+01 0.429E+04 0.000E+00 0.000E+00 0.000E+00 0.000E+00 0.000E+00 0.602E-04     0.000     0.003     0.000
BARR    5 000010005    1    0    4.24999E-02     3.100     0.000     0.000     0.000    19.115     7.109    32.080    94.136     0.000     0.000     0.000     2.602     0.000     0.000   997.398  2000.000     0.000     0.000     0.000     0.000     0.000     0.000    30.222     1.600     4.087    -0.887     3.519     4.669     0.000     0.000     0.000     0.000     0.000     0.000     0.000     0.000     0.000     0.000     0.000     0.000     0.000     0.245    -0.001     0.000     0.042     0.666     8.265     0.000     0.000     0.000     0.000     0.000     0.000     0.000     0.000     0.000     0.000     0.000     0.000     0.000     0.000     0.000     0.000     0.000     0.000     0.000 .00000E+00 .00000E+00 0.191E+01 0.429E+04 0.000E+00 0.000E+00 0.000E+00 0.000E+00 0.000E+00 0.000E+00     0.000     0.000     0.000
WETN    6 000020001    2    0    4.22531E+00     3.100     0.000     0.000     0.000    19.157     7.119    32.078    94.126     0.000     0.000     0.000     0.383     0.000     0.000   999.617  2000.000     0.000     0.000     0.000     0.000     0.000     0.000    30.221     1.600     4.087    -0.887     3.519     4.669     0.000     0.000     0.000     0.000     0.000     0.000     0.000     0.000     0.000     0.000     0.000     0.000     0.000     0.245    -0.001     0.000     0.042     0.666     8.265     0.000     0.000     0.000     0.000     0.000     0.000     0.000     0.000     0.000     0.000     0.000     0.000     0.000     0.000     0.000     0.000     0.000     0.000     0.000 .00000E+00 .00000E+00 0.191E+01 0.429E+04 0.000E+00 0.000E+00 0.000E+00 0.000E+00 0.000E+00 0.000E+00     0.000     0.000     0.000
PJNL    7 000020002    2    0    4.90938E+00     3.100     0.000     0.000     0.000    19.157     7.119    32.077    94.122     0.000     0.000     0.000     2.563     0.000     0.000   997.437  2000.000     0.000     0.000     0.000     0.002     0.000     0.002    30.221     1.600     4.087    -0.887     3.519     4.669     0.000     0.000     0.000     0.000     0.000     0.000     0.000     0.000     0.000     0.000     0.000     0.000     0.000     0.245    -0.001     0.000     0.042     0.666     8.265     0.000     0.000     0.000     0.000     0.000     0.000     0.000     0.000     0.000     0.000     0.000     0.000     0.000     0.000     0.000     0.000     0.000     0.000     0.000 .00000E+00 .00000E+00 0.191E+01 0.429E+04 0.000E+00 0.000E+00 0.000E+00 0.000E+00 0.000E+00 0.368E-04     0.000     0.002     0.000
PJNL    8 000020003    2    0    4.27187E-01     3.100     0.000     0.000     0.000    19.157     7.119    32.078    94.126     0.000     0.000     0.000     2.563     0.000     0.000   997.437  2000.000     0.000     0.000     0.000     0.000     0.000     0.000    30.221     1.600     4.087    -0.887     3.519     4.669     0.000     0.000     0.000     0.000     0.000     0.000     0.000     0.000     0.000     0.000     0.000     0.000     0.000     0.245    -0.001     0.000     0.042     0.666     8.265     0.000     0.000     0.000     0.000     0.000     0.000     0.000     0.000     0.000     0.000     0.000     0.000     0.000     0.000     0.000     0.000     0.000     0.000     0.000 .00000E+00 .00000E+00 0.191E+01 0.429E+04 0.000E+00 0.000E+00 0.000E+00 0.000E+00 0.000E+00 0.000E+00     0.000     0.000     0.000
BARR    9 000020004    2    0    4.10641E+01     3.100     0.000     0.000     0.000    19.157     7.119    32.077    94.121     0.000     0.000     0.000     2.607     0.000     0.000   997.393  2000.000     0.000     0.000     0.000     0.003     0.000     0.003    30.221     1.600     4.087    -0.887     3.519     4.669     0.000     0.000     0.000     0.000     0.000     0.000     0.000     0.000     0.000     0.000     0.000     0.000     0.000     0.245    -0.001     0.000     0.042     0.666     8.265     0.000     0.000     0.000     0.000     0.000     0.000     0.000     0.000     0.000     0.000     0.000     0.000     0.000     0.000     0.000     0.000     0.000     0.000     0.000 .00000E+00 .00000E+00 0.191E+01 0.429E+04 0.000E+00 0.000E+00 0.000E+00 0.000E+00 0.000E+00 0.460E-04     0.000     0.003     0.000
BARR   10 000020005    2    0    4.68751E-02     3.100     0.000     0.000     0.000    19.157     7.119    32.078    94.126     0.000     0.000     0.000     2.607     0.000     0.000   997.393  2000.000     0.000     0.000     0.000     0.000     0.000     0.000    30.221     1.600     4.087    -0.887     3.519     4.669     0.000     0.000     0.000     0.000     0.000     0.000     0.000     0.000     0.000     0.000     0.000     0.000     0.000     0.245    -0.001     0.000     0.042     0.666     8.265     0.000     0.000     0.000     0.000     0.000     0.000     0.000     0.000     0.000     0.000     0.000     0.000     0.000     0.000     0.000     0.000     0.000     0.000     0.000 .00000E+00 .00000E+00 0.191E+01 0.429E+04 0.000E+00 0.000E+00 0.000E+00 0.000E+00 0.000E+00 0.000E+00     0.000     0.000     0.000
PJNL   11 000030001    3    0    4.12831E+01     3.100     0.000     0.000     0.000    19.169     9.604    31.685    91.636     0.000     0.000     0.000     2.565     0.000     0.000   997.435  2000.000     0.000     0.000     0.000     0.003     0.000     0.003    30.190     1.600     4.087    -0.887     3.521     4.669     0.000     0.000     0.000     0.000     0.000     0.000     0.000     0.000     0.000     0.000     0.000     0.000     0.000     0.244    -0.001     0.000     0.042     0.654     8.192     0.000     0.000     0.000     0.000     0.000     0.000     0.000     0.000     0.000     0.000     0.000     0.000     0.000     0.000     0.000     0.000     0.000     0.000     0.000 .00000E+00 .00000E+00 0.191E+01 0.429E+04 0.000E+00 0.000E+00 0.000E+00 0.000E+00 0.000E+00 0.500E-04     0.000     0.003     0.000
PJNL   12 000030002    3    0    4.19844E-01     3.100     0.000     0.000     0.000    19.169     9.605    31.686    91.641     0.000     0.000     0.000     2.565     0.000     0.000   997.435  2000.000     0.000     0.000     0.000     0.000     0.000     0.000    30.190     1.600     4.087    -0.887     3.521     4.669     0.000     0.000     0.000     0.000     0.000     0.000     0.000     0.000     0.000     0.000     0.000     0.000     0.000     0.244    -0.001     0.000     0.042     0.654     8.192     0.000     0.000     0.000     0.000     0.000     0.000     0.000     0.000     0.000     0.000     0.000     0.000     0.000     0.000     0.000     0.000     0.000     0.000     0.000 .00000E+00 .00000E+00 0.191E+01 0.429E+04 0.000E+00 0.000E+00 0.000E+00 0.000E+00 0.000E+00 0.000E+00     0.000     0.000     0.000
BARR   13 000030003    3    0    4.42609E+00     3.100     0.000     0.000     0.000    19.169     7.122    32.076    94.117     0.000     0.000     0.000     2.609     0.000     0.000   997.391  2000.000     0.000     0.000     0.000     0.003     0.000     0.003    30.221     1.600     4.087    -0.887     3.519     4.669     0.000     0.000     0.000     0.000     0.000     0.000     0.000     0.000     0.000     0.000     0.000     0.000     0.000     0.245    -0.001     0.000     0.042     0.666     8.265     0.000     0.000     0.000     0.000     0.000     0.000     0.000     0.000     0.000     0.000     0.000     0.000     0.000     0.000     0.000     0.000     0.000     0.000     0.000 .00000E+00 .00000E+00 0.191E+01 0.429E+04 0.000E+00 0.000E+00 0.000E+00 0.000E+00 0.000E+00 0.518E-04     0.000     0.003     0.000
BARR   14 000030004    3    0    4.29688E-02     3.100     0.000     0.000     0.000    19.169     7.122    32.077    94.123     0.000     0.000     0.000     2.609     0.000     0.000   997.391  2000.000     0.000     0.000     0.000     0.000     0.000     0.000    30.221     1.600     4.087    -0.887     3.519     4.669     0.000     0.000     0.000     0.000     0.000     0.000     0.000     0.000     0.000     0.000     0.000     0.000     0.000     0.245    -0.001     0.000     0.042     0.666     8.265     0.000     0.000     0.000     0.000     0.000     0.000     0.000     0.000     0.000     0.000     0.000     0.000     0.000     0.000     0.000     0.000     0.000     0.000     0.000 .00000E+00 .00000E+00 0.191E+01 0.429E+04 0.000E+00 0.000E+00 0.000E+00 0.000E+00 0.000E+00 0.000E+00     0.000     0.000     0.000
WETN   15 000030005    3    0    4.25625E-01     3.100     0.000     0.000     0.000    19.169     7.122    32.077    94.123     0.000     0.000     0.000     0.383     0.000     0.000   999.617  2000.000     0.000     0.000     0.000     0.000     0.000     0.000    30.221     1.600     4.087    -0.887     3.519     4.669     0.000     0.000     0.000     0.000     0.000     0.000     0.000     0.000     0.000     0.000     0.000     0.000     0.000     0.245    -0.001     0.000     0.042     0.666     8.265     0.000     0.000     0.000     0.000     0.000     0.000     0.000     0.000     0.000     0.000     0.000     0.000     0.000     0.000     0.000     0.000     0.000     0.000     0.000 .00000E+00 .00000E+00 0.191E+01 0.429E+04 0.000E+00 0.000E+00 0.000E+00 0.000E+00 0.000E+00 0.000E+00     0.000     0.000     0.000
ES10   16 000030006    3    0    4.33750E-01     3.100     0.000     0.000     0.000    19.169     7.122    32.076    94.118     0.000     0.000     0.000     0.383     0.000     0.000   999.617  2000.000     0.000     0.000     0.000     0.003     0.000     0.003    30.221     1.600     4.087    -0.887     3.519     4.669     0.000     0.000     0.000     0.000     0.000     0.000     0.000     0.000     0.000     0.000     0.000     0.000     0.000     0.245    -0.001     0.000     0.042     0.666     8.265     0.000     0.000     0.000     0.000     0.000     0.000     0.000     0.000     0.000     0.000     0.000     0.000     0.000     0.000     0.000     0.000     0.000     0.000     0.000 .00000E+00 .00000E+00 0.191E+01 0.429E+04 0.000E+00 0.000E+00 0.000E+00 0.000E+00 0.000E+00 0.449E-04     0.000     0.003     0.000
ES9    17 000030007    3    0    4.15625E-01     3.100     0.000     0.000     0.000    19.169     7.122    32.076    94.118     0.000     0.000     0.000     0.383     0.000     0.000   999.617  2000.000     0.000     0.000     0.000     0.003     0.000     0.003    30.221     1.600     4.087    -0.887     3.519     4.669     0.000     0.000     0.000     0.000     0.000     0.000     0.000     0.000     0.000     0.000     0.000     0.000     0.000     0.245    -0.001     0.000     0.042     0.666     8.265     0.000     0.000     0.000     0.000     0.000     0.000     0.000     0.000     0.000     0.000     0.000     0.000     0.000     0.000     0.000     0.000     0.000     0.000     0.000 .00000E+00 .00000E+00 0.191E+01 0.429E+04 0.000E+00 0.000E+00 0.000E+00 0.000E+00 0.000E+00 0.457E-04     0.000     0.003     0.000
ES9    18 000030008    3    0    4.31258E-03     3.100     0.000     0.000     0.000    19.169     7.122    32.077    94.123     0.000     0.000     0.000     0.383     0.000     0.000   999.617  2000.000     0.000     0.000     0.000     0.000     0.000     0.000    30.221     1.600     4.087    -0.887     3.519     4.669     0.000     0.000     0.000     0.000     0.000     0.000     0.000     0.000     0.000     0.000     0.000     0.000     0.000     0.245    -0.001     0.000     0.042     0.666     8.265     0.000     0.000     0.000     0.000     0.000     0.000     0.000     0.000     0.000     0.000     0.000     0.000     0.000     0.000     0.000     0.000     0.000     0.000     0.000 .00000E+00 .00000E+00 0.191E+01 0.429E+04 0.000E+00 0.000E+00 0.000E+00 0.000E+00 0.000E+00 0.000E+00     0.000     0.000     0.000
ES11   19 000030009    3    0    4.18281E-01     3.100     0.000     0.000     0.000    19.169     7.122    32.076    94.116     0.000     0.000     0.000     0.383     0.000     0.000   999.617  2000.000     0.000     0.000     0.000     0.004     0.000     0.004    30.221     1.600     4.087    -0.887     3.519     4.669     0.000     0.000     0.000     0.000     0.000     0.000     0.000     0.000     0.000     0.000     0.000     0.000     0.000     0.245    -0.001     0.000     0.042     0.666     8.265     0.000     0.000     0.000     0.000     0.000     0.000     0.000     0.000     0.000     0.000     0.000     0.000     0.000     0.000     0.000     0.000     0.000     0.000     0.000 .00000E+00 .00000E+00 0.191E+01 0.429E+04 0.000E+00 0.000E+00 0.000E+00 0.000E+00 0.000E+00 0.626E-04     0.000     0.004     0.000
ES12   20 000030010    3    0    4.68751E-02     3.100     0.000     0.000     0.000    19.169     7.121    32.076    94.115     0.000     0.000     0.000     0.383     0.000     0.000   999.617  2000.000     0.000     0.000     0.000     0.004     0.000     0.004    30.221     1.600     4.087    -0.887     3.519     4.669     0.000     0.000     0.000     0.000     0.000     0.000     0.000     0.000     0.000     0.000     0.000     0.000     0.000     0.245    -0.001     0.000     0.042     0.666     8.265     0.000     0.000     0.000     0.000     0.000     0.000     0.000     0.000     0.000     0.000     0.000     0.000     0.000     0.000     0.000     0.000     0.000     0.000     0.000 .00000E+00 .00000E+00 0.191E+01 0.429E+04 0.000E+00 0.000E+00 0.000E+00 0.000E+00 0.000E+00 0.765E-04     0.000     0.004     0.000
ES13   21 000030011    3    0    4.18749E-02     3.100     0.000     0.000     0.000    19.169     7.121    32.076    94.115     0.000     0.000     0.000     0.383     0.000     0.000   999.617  2000.000     0.000     0.000     0.000     0.005     0.000     0.005    30.221     1.600     4.087    -0.887     3.519     4.669     0.000     0.000     0.000     0.000     0.000     0.000     0.000     0.000     0.000     0.000     0.000     0.000     0.000     0.245    -0.001     0.000     0.042     0.666     8.265     0.000     0.000     0.000     0.000     0.000     0.000     0.000     0.000     0.000     0.000     0.000     0.000     0.000     0.000     0.000     0.000     0.000     0.000     0.000 .00000E+00 .00000E+00 0.191E+01 0.429E+04 0.000E+00 0.280E+04 0.176E+06 0.000E+00 0.000E+00 0.787E-04     0.000     0.005     0.000
PJNL    1 000010001    1    0    5.13850E+01    11.300     0.000     0.000     0.000    53.156    15.609    90.426    89.685     0.000     0.000     0.000     7.112     0.000     0.000   990.330  2000.000     0.000     0.000     0.000     0.069     0.000     0.069    90.194     5.565    13.971    -2.842     7.928    14.315     0.000     0.000     0.000     0.000     0.000     0.000     0.000     0.000     0.000     0.000     0.000     0.000     0.000     0.699    -0.009     0.000     0.120     2.879     9.282     0.000     0.000     0.000     0.000     0.000     0.000     0.000     0.001     0.000     0.000     0.000     0.000     0.000     0.000     0.000     0.000     0.000     0.000     0.000 .00000E+00 .00000E+00 0.248E+01 0.429E+04 0.000E+00 0.000E+00 0.000E+00 0.000E+00 0.000E+00 0.149E-02     0.000     0.069     0.000
PJNL    2 000010002    1    0    5.33594E-01    11.300     0.000     0.000     0.000    53.156    15.615    90.456    89.821     0.000     0.000     0.000     7.112     0.000     0.000   990.330  2000.000     0.000     0.000     0.000     0.000     0.000     0.000    90.197     5.565    13.971    -2.842     7.927    14.315     0.000     0.000     0.000     0.000     0.000     0.000     0.000     0.000     0.000     0.000     0.000     0.000     0.000     0.699    -0.009     0.000     0.120     2.879     9.283     0.000     0.000     0.000     0.000     0.000     0.000     0.000     0.000     0.000     0.000     0.000     0.000     0.000     0.000     0.000     0.000     0.000     0.000     0.000 .00000E+00 .00000E+00 0.248E+01 0.429E+04 0.000E+00 0.000E+00 0.000E+00 0.000E+00 0.000E+00 0.000E+00     0.000     0.000     0.000
WETN    3 000010003    1    0    5.71719E-01    11.300     0.000     0.000     0.000    53.156    15.615    90.456    89.821     0.000     0.000     0.000     1.063     0.000     0.000   998.555  2000.000     0.000     0.000     0.000     0.000     0.000     0.000    90.197     5.565    13.971    -2.842     7.927    14.315     0.000     0.000     0.000     0.000     0.000     0.000     0.000     0.000     0.000     0.000     0.000     0.000     0.000     0.699    -0.009     0.000     0.120     2.879     9.283     0.000     0.000     0.000     0.000     0.000     0.000     0.000     0.000     0.000     0.000     0.000     0.000     0.000     0.000     0.000     0.000     0.000     0.000     0.000 .00000E+00 .00000E+00 0.248E+01 0.429E+04 0.000E+00 0.000E+00 0.000E+00 0.000E+00 0.000E+00 0.000E+00     0.000     0.000     0.000
BARR    4 000010004    1    0    5.22984E+00    11.300     0.000     0.000     0.000    53.156    15.608    90.423    89.668     0.000     0.000     0.000     7.234     0.000     0.000   990.164  2000.000     0.000     0.000     0.000     0.077     0.000     0.077    90.194     5.565    13.971    -2.842     7.928    14.315     0.000     0.000     0.000     0.000     0.000     0.000     0.000     0.000     0.000     0.000     0.000     0.000     0.000     0.699    -0.009     0.000     0.120     2.879     9.282     0.000     0.000     0.000     0.000     0.000     0.000     0.000     0.002     0.000     0.000     0.000     0.000     0.000     0.000     0.000     0.000     0.000     0.000     0.000 .00000E+00 .00000E+00 0.248E+01 0.429E+04 0.000E+00 0.000E+00 0.000E+00 0.000E+00 0.000E+00 0.167E-02     0.000     0.077     0.000
BARR    5 000010005    1    0    5.24999E-02    11.300     0.000     0.000     0.000    53.156    15.615    90.456    89.821     0.000     0.000     0.000     7.234     0.000     0.000   990.164  2000.000     0.000     0.000     0.000     0.000     0.000     0.000    90.197     5.565    13.971    -2.842     7.927    14.315     0.000     0.000     0.000     0.000     0.000     0.000     0.000     0.000     0.000     0.000     0.000     0.000     0.000     0.699    -0.009     0.000     0.120     2.879     9.283     0.000     0.000     0.000     0.000     0.000     0.000     0.000     0.000     0.000     0.000     0.000     0.000     0.000     0.000     0.000     0.000     0.000     0.000     0.000 .00000E+00 .00000E+00 0.248E+01 0.429E+04 0.000E+00 0.000E+00 0.000E+00 0.000E+00 0.000E+00 0.000E+00     0.000     0.000     0.000
WETN    6 000020001    2    0    5.22531E+00    11.300     0.000     0.000     0.000    53.353    15.651    90.430    89.775     0.000     0.000     0.000     1.067     0.000     0.000   998.550  2000.000     0.000     0.000     0.000     0.000     0.000     0.000    90.194     5.565    13.971    -2.842     7.928    14.315     0.000     0.000     0.000     0.000     0.000     0.000     0.000     0.000     0.000     0.000     0.000     0.000     0.000     0.699    -0.009     0.000     0.120     2.879     9.283     0.000     0.000     0.000     0.000     0.000     0.000     0.000     0.000     0.000     0.000     0.000     0.000     0.000     0.000     0.000     0.000     0.000     0.000     0.000 .00000E+00 .00000E+00 0.248E+01 0.429E+04 0.000E+00 0.000E+00 0.000E+00 0.000E+00 0.000E+00 0.000E+00     0.000     0.000     0.000
PJNL    7 000020002    2    0    5.90938E+00    11.300     0.000     0.000     0.000    53.353    15.646    90.409    89.679     0.000     0.000     0.000     7.139     0.000     0.000   990.298  2000.000     0.000     0.000     0.000     0.049     0.000     0.049    90.193     5.565    13.971    -2.842     7.928    14.315     0.000     0.000     0.000     0.000     0.000     0.000     0.000     0.000     0.000     0.000     0.000     0.000     0.000     0.699    -0.009     0.000     0.120     2.879     9.282     0.000     0.000     0.000     0.000     0.000     0.000     0.000     0.001     0.000     0.000     0.000     0.000     0.000     0.000     0.000     0.000     0.000     0.000     0.000 .00000E+00 .00000E+00 0.248E+01 0.429E+04 0.000E+00 0.000E+00 0.000E+00 0.000E+00 0.000E+00 0.105E-02     0.000     0.049     0.000
PJNL    8 000020003    2    0    5.27187E-01    11.300     0.000     0.000     0.000    53.353    15.651    90.430    89.775     0.000     0.000     0.000     7.139     0.000     0.000   990.298  2000.000     0.000     0.000     0.000     0.000     0.000     0.000    90.194     5.565    13.971    -2.842     7.928    14.315     0.000     0.000     0.000     0.000     0.000     0.000     0.000     0.000     0.000     0.000     0.000     0.000     0.000     0.699    -0.009     0.000     0.120     2.879     9.283     0.000     0.000     0.000     0.000     0.000     0.000     0.000     0.000     0.000     0.000     0.000     0.000     0.000     0.000     0.000     0.000     0.000     0.000     0.000 .00000E+00 .00000E+00 0.248E+01 0.429E+04 0.000E+00 0.000E+00 0.000E+00 0.000E+00 0.000E+00 0.000E+00     0.000     0.000     0.000
BARR    9 000020004    2    0    5.10641E+01    11.300     0.000     0.000     0.000    53.353    15.645    90.404    89.655     0.000     0.000     0.000     7.261     0.000     0.000   990.131  2000.000     0.000     0.000     0.000     0.061     0.000     0.061    90.192     5.565    13.971    -2.842     7.928    14.315     0.000     0.000     0.000     0.000     0.000     0.000     0.000     0.000     0.000     0.000     0.000     0.000     0.000     0.699    -0.009     0.000     0.120     2.879     9.282     0.000     0.000     0.000     0.000     0.000     0.000     0.000     0.001     0.000     0.000     0.000     0.000     0.000     0.000     0.000     0.000     0.000     0.000     0.000 .00000E+00 .00000E+00 0.248E+01 0.429E+04 0.000E+00 0.000E+00 0.000E+00 0.000E+00 0.000E+00 0.132E-02     0.000     0.061     0.000
BARR   10 000020005    2    0    5.68751E-02    11.300     0.000     0.000     0.000    53.353    15.651    90.430    89.775     0.000     0.000     0.000     7.261     0.000     0.000   990.131  2000.000     0.000     0.000     0.000     0.000     0.000     0.000    90.194     5.565    13.971    -2.842     7.928    14.315     0.000     0.000     0.000     0.000     0.000     0.000     0.000     0.000     0.000     0.000     0.000     0.000     0.000     0.699    -0.009     0.000     0.120     2.879     9.283     0.000     0.000     0.000     0.000     0.000     0.000     0.000     0.000     0.000     0.000     0.000     0.000     0.000     0.000     0.000     0.000     0.000     0.000     0.000 .00000E+00 .00000E+00 0.248E+01 0.429E+04 0.000E+00 0.000E+00 0.000E+00 0.000E+00 0.000E+00 0.000E+00     0.000     0.000     0.000
PJNL   11 000030001    3    0    5.12831E+01    11.300     0.000     0.000     0.000    53.411    21.323    84.640    81.482     0.000     0.000     0.000     7.146     0.000     0.000   990.289  2000.000     0.000     0.000     0.000     0.065     0.000     0.065    89.684     5.565    13.971    -2.842     7.992    14.315     0.000     0.000     0.000     0.000     0.000     0.000     0.000     0.000     0.000     0.000     0.000     0.000     0.000     0.691    -0.009     0.000     0.119     2.751     9.033     0.000     0.000     0.000     0.000     0.000     0.000     0.000     0.002     0.000     0.000     0.000     0.000     0.000     0.000     0.000     0.000     0.000     0.000     0.000 .00000E+00 .00000E+00 0.248E+01 0.429E+04 0.000E+00 0.000E+00 0.000E+00 0.000E+00 0.000E+00 0.159E-02     0.000     0.065     0.000
PJNL   12 000030002    3    0    5.19844E-01    11.300     0.000     0.000     0.000    53.411    21.331    84.668    81.610     0.000     0.000     0.000     7.146     0.000     0.000   990.289  2000.000     0.000     0.000     0.000     0.000     0.000     0.000    89.687     5.565    13.971    -2.842     7.992    14.315     0.000     0.000     0.000     0.000     0.000     0.000     0.000     0.000     0.000     0.000     0.000     0.000     0.000     0.692    -0.009     0.000     0.119     2.752     9.035     0.000     0.000     0.000     0.000     0.000     0.000     0.000     0.000     0.000     0.000     0.000     0.000     0.000     0.000     0.000     0.000     0.000     0.000     0.000 .00000E+00 .00000E+00 0.248E+01 0.429E+04 0.000E+00 0.000E+00 0.000E+00 0.000E+00 0.000E+00 0.000E+00     0.000     0.000     0.000
BARR   13 000030003    3    0    5.42609E+00    11.300     0.000     0.000     0.000    53.411    15.654    90.393    89.626     0.000     0.000     0.000     7.269     0.000     0.000   990.122  2000.000     0.000     0.000     0.000     0.069     0.000     0.069    90.191     5.565    13.971    -2.842     7.928    14.315     0.000     0.000     0.000     0.000     0.000     0.000     0.000     0.000     0.000     0.000     0.000     0.000     0.000     0.699    -0.009     0.000     0.120     2.879     9.281     0.000     0.000     0.000     0.000     0.000     0.000     0.000     0.002     0.000     0.000     0.000     0.000     0.000     0.000     0.000     0.000     0.000     0.000     0.000 .00000E+00 .00000E+00 0.248E+01 0.429E+04 0.000E+00 0.000E+00 0.000E+00 0.000E+00 0.000E+00 0.150E-02     0.000     0.069     0.000
BARR   14 000030004    3    0    5.29688E-02    11.300     0.000     0.000     0.000    53.411    15.661    90.422    89.762     0.000     0.000     0.000     7.269     0.000     0.000   990.122  2000.000     0.000     0.000     0.000     0.000     0.000     0.000    90.194     5.565    13.971    -2.842     7.928    14.315     0.000     0.000     0.000     0.000     0.000     0.000     0.000     0.000     0.000     0.000     0.000     0.000     0.000     0.699    -0.009     0.000     0.120     2.879     9.282     0.000     0.000     0.000     0.000     0.000     0.000     0.000     0.000     0.000     0.000     0.000     0.000     0.000     0.000     0.000     0.000     0.000     0.000     0.000 .00000E+00 .00000E+00 0.248E+01 0.429E+04 0.000E+00 0.000E+00 0.000E+00 0.000E+00 0.000E+00 0.000E+00     0.000     0.000     0.000
WETN   15 000030005    3    0    5.25625E-01    11.300     0.000     0.000     0.000    53.411    15.661    90.422    89.762     0.000     0.000     0.000     1.068     0.000     0.000   998.548  2000.000     0.000     0.000     0.000     0.000     0.000     0.000    90.194     5.565    13.971    -2.842     7.928    14.315     0.000     0.000     0.000     0.000     0.000     0.000     0.000     0.000     0.000     0.000     0.000     0.000     0.000     0.699    -0.009     0.000     0.120     2.879     9.282     0.000     0.000     0.000     0.000     0.000     0.000     0.000     0.000     0.000     0.000     0.000     0.000     0.000     0.000     0.000     0.000     0.000     0.000     0.000 .00000E+00 .00000E+00 0.248E+01 0.429E+04 0.000E+00 0.000E+00 0.000E+00 0.000E+00 0.000E+00 0.000E+00     0.000     0.000     0.000
ES10   16 000030006    3    0    5.33750E-01    11.300     0.000     0.000     0.000    53.411    15.655    90.397    89.644     0.000     0.000     0.000     1.068     0.000     0.000   998.548  2000.000     0.000     0.000     0.000     0.060     0.000     0.060    90.192     5.565    13.971    -2.842     7.928    14.315     0.000     0.000     0.000     0.000     0.000     0.000     0.000     0.000     0.000     0.000     0.000     0.000     0.000     0.699    -0.009     0.000     0.120     2.879     9.281     0.000     0.000     0.000     0.000     0.000     0.000     0.000     0.001     0.000     0.000     0.000     0.000     0.000     0.000     0.000     0.000     0.000     0.000     0.000 .00000E+00 .00000E+00 0.248E+01 0.429E+04 0.000E+00 0.000E+00 0.000E+00 0.000E+00 0.000E+00 0.130E-02     0.000     0.060     0.000
ES9    17 000030007    3    0    5.15625E-01    11.300     0.000     0.000     0.000    53.411    15.655    90.396    89.642     0.000     0.000     0.000     1.068     0.000     0.000   998.548  2000.000     0.000     0.000     0.000     0.061     0.000     0.061    90.191     5.565    13.971    -2.842     7.928    14.315     0.000     0.000     0.000     0.000     0.000     0.000     0.000     0.000     0.000     0.000     0.000     0.000     0.000     0.699    -0.009     0.000     0.120     2.879     9.281     0.000     0.000     0.000     0.000     0.000     0.000     0.000     0.001     0.000     0.000     0.000     0.000     0.000     0.000     0.000     0.000     0.000     0.000     0.000 .00000E+00 .00000E+00 0.248E+01 0.429E+04 0.000E+00 0.000E+00 0.000E+00 0.000E+00 0.000E+00 0.132E-02     0.000     0.061     0.000
ES9    18 000030008    3    0    5.31258E-03    11.300     0.000     0.000     0.000    53.411    15.661    90.422    89.762     0.000     0.000     0.000     1.068     0.000     0.000   998.548  2000.000     0.000     0.000     0.000     0.000     0.000     0.000    90.194     5.565    13.971    -2.842     7.928    14.315     0.000     0.000     0.000     0.000     0.000     0.000     0.000     0.000     0.000     0.000     0.000     0.000     0.000     0.699    -0.009     0.000     0.120     2.879     9.282     0.000     0.000     0.000     0.000     0.000     0.000     0.000     0.000     0.000     0.000     0.000     0.000     0.000     0.000     0.000     0.000     0.000     0.000     0.000 .00000E+00 .00000E+00 0.248E+01 0.429E+04 0.000E+00 0.000E+00 0.000E+00 0.000E+00 0.000E+00 0.000E+00     0.000     0.000     0.000
ES11   19 000030009    3    0    5.18281E-01    11.300     0.000     0.000     0.000    53.411    15.653    90.387    89.597     0.000     0.000     0.000     1.068     0.000     0.000   998.548  2000.000     0.000     0.000     0.000     0.083     0.000     0.083    90.191     5.565    13.971    -2.842     7.928    14.315     0.000     0.000     0.000     0.000     0.000     0.000     0.000     0.000     0.000     0.000     0.000     0.000     0.000     0.699    -0.009     0.000     0.120     2.879     9.281     0.000     0.000     0.000     0.000     0.000     0.000     0.000     0.002     0.000     0.000     0.000     0.000     0.000     0.000     0.000     0.000     0.000     0.000     0.000 .00000E+00 .00000E+00 0.248E+01 0.429E+04 0.000E+00 0.000E+00 0.000E+00 0.000E+00 0.000E+00 0.182E-02     0.000     0.083     0.000
ES12   20 000030010    3    0    5.68751E-02    11.300     0.000     0.000     0.000    53.411    15.651    90.379    89.561     0.000     0.000     0.000     1.068     0.000     0.000   998.548  2000.000     0.000     0.000     0.000     0.102     0.000     0.102    90.190     5.565    13.971    -2.842     7.928    14.315     0.000     0.000     0.000     0.000     0.000     0.000     0.000     0.000     0.000     0.000     0.000     0.000     0.000     0.699    -0.009     0.000     0.120     2.878     9.281     0.000     0.000     0.000     0.000     0.000     0.000     0.000     0.002     0.000     0.000     0.000     0.000     0.000     0.000     0.000     0.000     0.000     0.000     0.000 .00000E+00 .00000E+00 0.248E+01 0.429E+04 0.000E+00 0.000E+00 0.000E+00 0.000E+00 0.000E+00 0.223E-02     0.000     0.102     0.000
ES13   21 000030011    3    0    5.18749E-02    11.300     0.000     0.000     0.000    53.411    15.651    90.377    89.555     0.000     0.000     0.000     1.068     0.000     0.000   998.548  2000.000     0.000     0.000     0.000     0.105     0.000     0.105    90.190     5.565    13.971    -2.842     7.928    14.315     0.000     0.000     0.000     0.000     0.000     0.000     0.000     0.000     0.000     0.000     0.000     0.000     0.000     0.699    -0.009     0.000     0.120     2.878     9.281     0.000     0.000     0.000     0.000     0.000     0.000     0.000     0.002     0.000     0.000     0.000     0.000     0.000     0.000     0.000     0.000     0.000     0.000     0.000 .00000E+00 .00000E+00 0.248E+01 0.429E+04 0.000E+00 0.280E+04 0.176E+06 0.000E+00 0.000E+00 0.229E-02     0.000     0.105     0.000
PJNL    1 000010001    1    0    6.13850E+01     8.000     0.000     0.000     0.000    59.726    14.915    85.769    82.681     0.000     0.000     0.000     7.991     0.000     0.000   982.339  2000.000     0.000     0.000     0.000     0.138     0.000     0.138    89.791     4.412    14.090    -5.267     7.800    17.466     0.000     0.000     0.000     0.000     0.000     0.000     0.000     0.000     0.000     0.000     0.000     0.000     0.000     0.663    -0.018     0.000     0.114     1.410     3.358     0.000     0.000     0.000     0.000     0.000     0.000     0.000     0.002     0.000     0.000     0.000     0.000     0.000     0.000     0.000     0.000     0.000     0.000     0.000 .00000E+00 .00000E+00 0.250E+01 0.429E+04 0.000E+00 0.000E+00 0.000E+00 0.000E+00 0.000E+00 0.250E-02     0.000     0.138     0.000
PJNL    2 000010002    1    0    6.33594E-01     8.000     0.000     0.000     0.000    59.726    14.963    85.921    82.858     0.000     0.000     0.000     7.991     0.000     0.000   982.339  2000.000     0.000     0.000     0.000     0.000     0.000     0.000    89.805     4.412    14.090    -5.267     7.798    17.466     0.000     0.000     0.000     0.000     0.000     0.000     0.000     0.000     0.000     0.000     0.000     0.000     0.000     0.664    -0.018     0.000     0.114     1.411     3.361     0.000     0.000     0.000     0.000     0.000     0.000     0.000     0.000     0.000     0.000     0.000     0.000     0.000     0.000     0.000     0.000     0.000     0.000     0.000 .00000E+00 .00000E+00 0.250E+01 0.429E+04 0.000E+00 0.000E+00 0.000E+00 0.000E+00 0.000E+00 0.000E+00     0.000     0.000     0.000
WETN    3 000010003    1    0    6.71719E-01     8.000     0.000     0.000     0.000    59.726    14.963    85.921    82.858     0.000     0.000     0.000     1.195     0.000     0.000   997.360  2000.000     0.000     0.000     0.000     0.000     0.000     0.000    89.805     4.412    14.090    -5.267     7.798    17.466     0.000     0.000     0.000     0.000     0.000     0.000     0.000     0.000     0.000     0.000     0.000     0.000     0.000     0.664    -0.018     0.000     0.114     1.411     3.361     0.000     0.000     0.000     0.000     0.000     0.000     0.000     0.000     0.000     0.000     0.000     0.000     0.000     0.000     0.000     0.000     0.000     0.000     0.000 .00000E+00 .00000E+00 0.250E+01 0.429E+04 0.000E+00 0.000E+00 0.000E+00 0.000E+00 0.000E+00 0.000E+00     0.000     0.000     0.000
BARR    4 000010004    1    0    6.22984E+00     8.000     0.000     0.000     0.000    59.726    14.909    85.749    82.659     0.000     0.000     0.000     8.129     0.000     0.000   982.035  2000.000     0.000     0.000     0.000     0.155     0.000     0.156    89.790     4.412    14.090    -5.267     7.800    17.466     0.000     0.000     0.000     0.000     0.000     0.000     0.000     0.000     0.000     0.000     0.000     0.000     0.000     0.663    -0.018     0.000     0.114     1.409     3.358     0.000     0.000     0.000     0.000     0.000     0.000     0.000     0.003     0.000     0.000     0.000     0.000     0.000     0.000     0.000     0.000     0.000     0.000     0.000 .00000E+00 .00000E+00 0.250E+01 0.429E+04 0.000E+00 0.000E+00 0.000E+00 0.000E+00 0.000E+00 0.282E-02     0.000     0.155     0.000
BARR    5 000010005    1    0    6.24999E-02     8.000     0.000     0.000     0.000    59.726    14.963    85.921    82.858     0.000     0.000     0.000     8.129     0.000     0.000   982.035  2000.000     0.000     0.000     0.000     0.000     0.000     0.000    89.805     4.412    14.090    -5.267     7.798    17.466     0.000     0.000     0.000     0.000     0.000     0.000     0.000     0.000     0.000     0.000     0.000     0.000     0.000     0.664    -0.018     0.000     0.114     1.411     3.361     0.000     0.000     0.000     0.000     0.000     0.000     0.000     0.000     0.000     0.000     0.000     0.000     0.000     0.000     0.000     0.000     0.000     0.000     0.000 .00000E+00 .00000E+00 0.250E+01 0.429E+04 0.000E+00 0.000E+00 0.000E+00 0.000E+00 0.000E+00 0.000E+00     0.000     0.000     0.000
WETN    6 000020001    2    0    6.22531E+00     8.000     0.000     0.000     0.000    59.979    14.982    85.866    82.793     0.000     0.000     0.000     1.200     0.000     0.000   997.350  2000.000     0.000     0.000     0.000     0.000     0.000     0.000    89.800     4.412    14.090    -5.267     7.799    17.466     0.000     0.000     0.000     0.000     0.000     0.000     0.000     0.000     0.000     0.000     0.000     0.000     0.000     0.664    -0.018     0.000     0.114     1.410     3.360     0.000     0.000     0.000     0.000     0.000     0.000     0.000     0.000     0.000     0.000     0.000     0.000     0.000     0.000     0.000     0.000     0.000     0.000     0.000 .00000E+00 .00000E+00 0.250E+01 0.429E+04 0.000E+00 0.000E+00 0.000E+00 0.000E+00 0.000E+00 0.000E+00     0.000     0.000     0.000
PJNL    7 000020002    2    0    6.90938E+00     8.000     0.000     0.000     0.000    59.979    14.948    85.758    82.668     0.000     0.000     0.000     8.025     0.000     0.000   982.273  2000.000     0.000     0.000     0.000     0.098     0.000     0.098    89.790     4.412    14.090    -5.267     7.800    17.466     0.000     0.000     0.000     0.000     0.000     0.000     0.000     0.000     0.000     0.000     0.000     0.000     0.000     0.663    -0.018     0.000     0.114     1.410     3.358     0.000     0.000     0.000     0.000     0.000     0.000     0.000     0.002     0.000     0.000     0.000     0.000     0.000     0.000     0.000     0.000     0.000     0.000     0.000 .00000E+00 .00000E+00 0.250E+01 0.429E+04 0.000E+00 0.000E+00 0.000E+00 0.000E+00 0.000E+00 0.177E-02     0.000     0.098     0.000
PJNL    8 000020003    2    0    6.27187E-01     8.000     0.000     0.000     0.000    59.979    14.982    85.866    82.793     0.000     0.000     0.000     8.025     0.000     0.000   982.273  2000.000     0.000     0.000     0.000     0.000     0.000     0.000    89.800     4.412    14.090    -5.267     7.799    17.466     0.000     0.000     0.000     0.000     0.000     0.000     0.000     0.000     0.000     0.000     0.000     0.000     0.000     0.664    -0.018     0.000     0.114     1.410     3.360     0.000     0.000     0.000     0.000     0.000     0.000     0.000     0.000     0.000     0.000     0.000     0.000     0.000     0.000     0.000     0.000     0.000     0.000     0.000 .00000E+00 .00000E+00 0.250E+01 0.429E+04 0.000E+00 0.000E+00 0.000E+00 0.000E+00 0.000E+00 0.000E+00     0.000     0.000     0.000
BARR    9 000020004    2    0    6.10641E+01     8.000     0.000     0.000     0.000    59.979    14.939    85.731    82.637     0.000     0.000     0.000     8.163     0.000     0.000   981.968  2000.000     0.000     0.000     0.000     0.123     0.000     0.123    89.788     4.412    14.090    -5.267     7.800    17.466     0.000     0.000     0.000     0.000     0.000     0.000     0.000     0.000     0.000     0.000     0.000     0.000     0.000     0.663    -0.018     0.000     0.114     1.409     3.358     0.000     0.000     0.000     0.000     0.000     0.000     0.000     0.002     0.000     0.000     0.000     0.000     0.000     0.000     0.000     0.000     0.000     0.000     0.000 .00000E+00 .00000E+00 0.250E+01 0.429E+04 0.000E+00 0.000E+00 0.000E+00 0.000E+00 0.000E+00 0.222E-02     0.000     0.123     0.000
BARR   10 000020005    2    0    6.68751E-02     8.000     0.000     0.000     0.000    59.979    14.982    85.866    82.793     0.000     0.000     0.000     8.163     0.000     0.000   981.968  2000.000     0.000     0.000     0.000     0.000     0.000     0.000    89.800     4.412    14.090    -5.267     7.799    17.466     0.000     0.000     0.000     0.000     0.000     0.000     0.000     0.000     0.000     0.000     0.000     0.000     0.000     0.664    -0.018     0.000     0.114     1.410     3.360     0.000     0.000     0.000     0.000     0.000     0.000     0.000     0.000     0.000     0.000     0.000     0.000     0.000     0.000     0.000     0.000     0.000     0.000     0.000 .00000E+00 .00000E+00 0.250E+01 0.429E+04 0.000E+00 0.000E+00 0.000E+00 0.000E+00 0.000E+00 0.000E+00     0.000     0.000     0.000
PJNL   11 000030001    3    0    6.12831E+01     8.000     0.000     0.000     0.000    60.052    20.121    74.966    69.276     0.000     0.000     0.000     8.035     0.000     0.000   982.254  2000.000     0.000     0.000     0.000     0.132     0.000     0.132    88.749     4.412    14.090    -5.267     7.956    17.466     0.000     0.000     0.000     0.000     0.000     0.000     0.000     0.000     0.000     0.000     0.000     0.000     0.000     0.650    -0.018     0.000     0.112     1.366     3.282     0.000     0.000     0.000     0.000     0.000     0.000     0.000     0.003     0.000     0.000     0.000     0.000     0.000     0.000     0.000     0.000     0.000     0.000     0.000 .00000E+00 .00000E+00 0.250E+01 0.429E+04 0.000E+00 0.000E+00 0.000E+00 0.000E+00 0.000E+00 0.276E-02     0.000     0.132     0.000
PJNL   12 000030002    3    0    6.19844E-01     8.000     0.000     0.000     0.000    60.052    20.171    75.108    69.439     0.000     0.000     0.000     8.035     0.000     0.000   982.254  2000.000     0.000     0.000     0.000     0.000     0.000     0.000    88.764     4.412    14.090    -5.267     7.953    17.466     0.000     0.000     0.000     0.000     0.000     0.000     0.000     0.000     0.000     0.000     0.000     0.000     0.000     0.651    -0.018     0.000     0.112     1.367     3.285     0.000     0.000     0.000     0.000     0.000     0.000     0.000     0.000     0.000     0.000     0.000     0.000     0.000     0.000     0.000     0.000     0.000     0.000     0.000 .00000E+00 .00000E+00 0.250E+01 0.429E+04 0.000E+00 0.000E+00 0.000E+00 0.000E+00 0.000E+00 0.000E+00     0.000     0.000     0.000
BARR   13 000030003    3    0    6.42609E+00     8.000     0.000     0.000     0.000    60.052    14.939    85.696    82.597     0.000     0.000     0.000     8.173     0.000     0.000   981.949  2000.000     0.000     0.000     0.000     0.139     0.000     0.139    89.785     4.412    14.090    -5.267     7.801    17.466     0.000     0.000     0.000     0.000     0.000     0.000     0.000     0.000     0.000     0.000     0.000     0.000     0.000     0.663    -0.018     0.000     0.114     1.409     3.357     0.000     0.000     0.000     0.000     0.000     0.000     0.000     0.003     0.000     0.000     0.000     0.000     0.000     0.000     0.000     0.000     0.000     0.000     0.000 .00000E+00 .00000E+00 0.250E+01 0.429E+04 0.000E+00 0.000E+00 0.000E+00 0.000E+00 0.000E+00 0.253E-02     0.000     0.139     0.000
BARR   14 000030004    3    0    6.29688E-02     8.000     0.000     0.000     0.000    60.052    14.987    85.850    82.775     0.000     0.000     0.000     8.173     0.000     0.000   981.949  2000.000     0.000     0.000     0.000     0.000     0.000     0.000    89.799     4.412    14.090    -5.267     7.799    17.466     0.000     0.000     0.000     0.000     0.000     0.000     0.000     0.000     0.000     0.000     0.000     0.000     0.000     0.664    -0.018     0.000     0.114     1.410     3.360     0.000     0.000     0.000     0.000     0.000     0.000     0.000     0.000     0.000     0.000     0.000     0.000     0.000     0.000     0.000     0.000     0.000     0.000     0.000 .00000E+00 .00000E+00 0.250E+01 0.429E+04 0.000E+00 0.000E+00 0.000E+00 0.000E+00 0.000E+00 0.000E+00     0.000     0.000     0.000
WETN   15 000030005    3    0    6.25625E-01     8.000     0.000     0.000     0.000    60.052    14.987    85.850    82.775     0.000     0.000     0.000     1.201     0.000     0.000   997.347  2000.000     0.000     0.000     0.000     0.000     0.000     0.000    89.799     4.412    14.090    -5.267     7.799    17.466     0.000     0.000     0.000     0.000     0.000     0.000     0.000     0.000     0.000     0.000     0.000     0.000     0.000     0.664    -0.018     0.000     0.114     1.410     3.360     0.000     0.000     0.000     0.000     0.000     0.000     0.000     0.000     0.000     0.000     0.000     0.000     0.000     0.000     0.000     0.000     0.000     0.000     0.000 .00000E+00 .00000E+00 0.250E+01 0.429E+04 0.000E+00 0.000E+00 0.000E+00 0.000E+00 0.000E+00 0.000E+00     0.000     0.000     0.000
ES10   16 000030006    3    0    6.33750E-01     8.000     0.000     0.000     0.000    60.052    14.945    85.717    82.621     0.000     0.000     0.000     1.201     0.000     0.000   997.347  2000.000     0.000     0.000     0.000     0.121     0.000     0.121    89.787     4.412    14.090    -5.267     7.800    17.466     0.000     0.000     0.000     0.000     0.000     0.000     0.000     0.000     0.000     0.000     0.000     0.000     0.000     0.663    -0.018     0.000     0.114     1.409     3.358     0.000     0.000     0.000     0.000     0.000     0.000     0.000     0.002     0.000     0.000     0.000     0.000     0.000     0.000     0.000     0.000     0.000     0.000     0.000 .00000E+00 .00000E+00 0.250E+01 0.429E+04 0.000E+00 0.000E+00 0.000E+00 0.000E+00 0.000E+00 0.219E-02     0.000     0.121     0.000
ES9    17 000030007    3    0    6.15625E-01     8.000     0.000     0.000     0.000    60.052    14.945    85.715    82.618     0.000     0.000     0.000     1.201     0.000     0.000   997.347  2000.000     0.000     0.000     0.000     0.123     0.000     0.123    89.787     4.412    14.090    -5.267     7.800    17.466     0.000     0.000     0.000     0.000     0.000     0.000     0.000     0.000     0.000     0.000     0.000     0.000     0.000     0.663    -0.018     0.000     0.114     1.409     3.358     0.000     0.000     0.000     0.000     0.000     0.000     0.000     0.002     0.000     0.000     0.000     0.000     0.000     0.000     0.000     0.000     0.000     0.000     0.000 .00000E+00 .00000E+00 0.250E+01 0.429E+04 0.000E+00 0.000E+00 0.000E+00 0.000E+00 0.000E+00 0.223E-02     0.000     0.123     0.000
ES9    18 000030008    3    0    6.31258E-03     8.000     0.000     0.000     0.000    60.052    14.987    85.850    82.775     0.000     0.000     0.000     1.201     0.000     0.000   997.347  2000.000     0.000     0.000     0.000     0.000     0.000     0.000    89.799     4.412    14.090    -5.267     7.799    17.466     0.000     0.000     0.000     0.000     0.000     0.000     0.000     0.000     0.000     0.000     0.000     0.000     0.000     0.664    -0.018     0.000     0.114     1.410     3.360     0.000     0.000     0.000     0.000     0.000     0.000     0.000     0.000     0.000     0.000     0.000     0.000     0.000     0.000     0.000     0.000     0.000     0.000     0.000 .00000E+00 .00000E+00 0.250E+01 0.429E+04 0.000E+00 0.000E+00 0.000E+00 0.000E+00 0.000E+00 0.000E+00     0.000     0.000     0.000
ES11   19 000030009    3    0    6.18281E-01     8.000     0.000     0.000     0.000    60.052    14.929    85.664    82.560     0.000     0.000     0.000     1.201     0.000     0.000   997.347  2000.000     0.000     0.000     0.000     0.168     0.000     0.168    89.782     4.412    14.090    -5.267     7.801    17.466     0.000     0.000     0.000     0.000     0.000     0.000     0.000     0.000     0.000     0.000     0.000     0.000     0.000     0.663    -0.018     0.000     0.114     1.409     3.357     0.000     0.000     0.000     0.000     0.000     0.000     0.000     0.003     0.000     0.000     0.000     0.000     0.000     0.000     0.000     0.000     0.000     0.000     0.000 .00000E+00 .00000E+00 0.250E+01 0.429E+04 0.000E+00 0.000E+00 0.000E+00 0.000E+00 0.000E+00 0.308E-02     0.000     0.168     0.000
ES12   20 000030010    3    0    6.68751E-02     8.000     0.000     0.000     0.000    60.052    14.916    85.623    82.512     0.000     0.000     0.000     1.201     0.000     0.000   997.347  2000.000     0.000     0.000     0.000     0.206     0.000     0.206    89.778     4.412    14.090    -5.267     7.802    17.466     0.000     0.000     0.000     0.000     0.000     0.000     0.000     0.000     0.000     0.000     0.000     0.000     0.000     0.663    -0.018     0.000     0.114     1.409     3.356     0.000     0.000     0.000     0.000     0.000     0.000     0.000     0.004     0.000     0.000     0.000     0.000     0.000     0.000     0.000     0.000     0.000     0.000     0.000 .00000E+00 .00000E+00 0.250E+01 0.429E+04 0.000E+00 0.000E+00 0.000E+00 0.000E+00 0.000E+00 0.378E-02     0.000     0.206     0.000
ES13   21 000030011    3    0    6.18749E-02     8.000     0.000     0.000     0.000    60.052    14.914    85.617    82.504     0.000     0.000     0.000     1.201     0.000     0.000   997.347  2000.000     0.000     0.000     0.000     0.212     0.000     0.212    89.778     4.412    14.090    -5.267     7.802    17.466     0.000     0.000     0.000     0.000     0.000     0.000     0.000     0.000     0.000     0.000     0.000     0.000     0.000     0.663    -0.018     0.000     0.114     1.409     3.356     0.000     0.000     0.000     0.000     0.000     0.000     0.000     0.004     0.000     0.000     0.000     0.000     0.000     0.000     0.000     0.000     0.000     0.000     0.000 .00000E+00 .00000E+00 0.250E+01 0.429E+04 0.000E+00 0.280E+04 0.176E+06 0.000E+00 0.000E+00 0.390E-02     0.000     0.212     0.000
PJNL    1 000010001    1    0    7.13850E+01     5.200     0.000     0.000     0.000    60.300    10.953    79.424    76.928     0.000     0.000     0.000     8.068     0.000     0.000   974.271  2000.000     0.000     0.000     0.000     0.021     0.000     0.022    89.201     4.545    14.200    -5.110     7.729    15.670     0.000     0.000     0.000     0.000     0.000     0.000     0.000     0.000     0.000     0.000     0.000     0.000     0.000     0.666    -0.029     0.000     0.114     0.768     1.958     0.000     0.000     0.000     0.000     0.000     0.000     0.000     0.000     0.000     0.000     0.000     0.000     0.000     0.000     0.000     0.000     0.000     0.000     0.000 .00000E+00 .00000E+00 0.250E+01 0.429E+04 0.000E+00 0.000E+00 0.000E+00 0.000E+00 0.000E+00 0.364E-03     0.000     0.021     0.000
PJNL    2 000010002    1    0    7.33594E-01     5.200     0.000     0.000     0.000    60.300    10.991    79.579    77.067     0.000     0.000     0.000     8.068     0.000     0.000   974.271  2000.000     0.000     0.000     0.000     0.000     0.000     0.000    89.216     4.545    14.200    -5.110     7.727    15.670     0.000     0.000     0.000     0.000     0.000     0.000     0.000     0.000     0.000     0.000     0.000     0.000     0.000     0.666    -0.029     0.000     0.114     0.768     1.958     0.000     0.000     0.000     0.000     0.000     0.000     0.000     0.000     0.000     0.000     0.000     0.000     0.000     0.000     0.000     0.000     0.000     0.000     0.000 .00000E+00 .00000E+00 0.250E+01 0.429E+04 0.000E+00 0.000E+00 0.000E+00 0.000E+00 0.000E+00 0.000E+00     0.000     0.000     0.000
WETN    3 000010003    1    0    7.71719E-01     5.200     0.000     0.000     0.000    60.300    10.991    79.579    77.067     0.000     0.000     0.000     1.206     0.000     0.000   996.154  2000.000     0.000     0.000     0.000     0.000     0.000     0.000    89.216     4.545    14.200    -5.110     7.727    15.670     0.000     0.000     0.000     0.000     0.000     0.000     0.000     0.000     0.000     0.000     0.000     0.000     0.000     0.666    -0.029     0.000     0.114     0.768     1.958     0.000     0.000     0.000     0.000     0.000     0.000     0.000     0.000     0.000     0.000     0.000     0.000     0.000     0.000     0.000     0.000     0.000     0.000     0.000 .00000E+00 .00000E+00 0.250E+01 0.429E+04 0.000E+00 0.000E+00 0.000E+00 0.000E+00 0.000E+00 0.000E+00     0.000     0.000     0.000
BARR    4 000010004    1    0    7.22984E+00     5.200     0.000     0.000     0.000    60.300    10.949    79.405    76.910     0.000     0.000     0.000     8.207     0.000     0.000   973.828  2000.000     0.000     0.000     0.000     0.024     0.000     0.024    89.199     4.545    14.200    -5.110     7.730    15.670     0.000     0.000     0.000     0.000     0.000     0.000     0.000     0.000     0.000     0.000     0.000     0.000     0.000     0.666    -0.029     0.000     0.114     0.768     1.958     0.000     0.000     0.000     0.000     0.000     0.000     0.000     0.000     0.000     0.000     0.000     0.000     0.000     0.000     0.000     0.000     0.000     0.000     0.000 .00000E+00 .00000E+00 0.250E+01 0.429E+04 0.000E+00 0.000E+00 0.000E+00 0.000E+00 0.000E+00 0.411E-03     0.000     0.024     0.000
BARR    5 000010005    1    0    7.24999E-02     5.200     0.000     0.000     0.000    60.300    10.991    79.579    77.067     0.000     0.000     0.000     8.207     0.000     0.000   973.828  2000.000     0.000     0.000     0.000     0.000     0.000     0.000    89.216     4.545    14.200    -5.110     7.727    15.670     0.000     0.000     0.000     0.000     0.000     0.000     0.000     0.000     0.000     0.000     0.000     0.000     0.000     0.666    -0.029     0.000     0.114     0.768     1.958     0.000     0.000     0.000     0.000     0.000     0.000     0.000     0.000     0.000     0.000     0.000     0.000     0.000     0.000     0.000     0.000     0.000     0.000     0.000 .00000E+00 .00000E+00 0.250E+01 0.429E+04 0.000E+00 0.000E+00 0.000E+00 0.000E+00 0.000E+00 0.000E+00     0.000     0.000     0.000
WETN    6 000020001    2    0    7.22531E+00     5.200     0.000     0.000     0.000    60.518    11.000    79.511    76.994     0.000     0.000     0.000     1.210     0.000     0.000   996.140  2000.000     0.000     0.000     0.000     0.000     0.000     0.000    89.209     4.545    14.200    -5.110     7.728    15.670     0.000     0.000     0.000     0.000     0.000     0.000     0.000     0.000     0.000     0.000     0.000     0.000     0.000     0.666    -0.029     0.000     0.114     0.768     1.958     0.000     0.000     0.000     0.000     0.000     0.000     0.000     0.000     0.000     0.000     0.000     0.000     0.000     0.000     0.000     0.000     0.000     0.000     0.000 .00000E+00 .00000E+00 0.250E+01 0.429E+04 0.000E+00 0.000E+00 0.000E+00 0.000E+00 0.000E+00 0.000E+00     0.000     0.000     0.000
PJNL    7 000020002    2    0    7.90938E+00     5.200     0.000     0.000     0.000    60.518    10.973    79.402    76.895     0.000     0.000     0.000     8.097     0.000     0.000   974.176  2000.000     0.000     0.000     0.000     0.015     0.000     0.015    89.199     4.545    14.200    -5.110     7.730    15.670     0.000     0.000     0.000     0.000     0.000     0.000     0.000     0.000     0.000     0.000     0.000     0.000     0.000     0.666    -0.029     0.000     0.114     0.768     1.958     0.000     0.000     0.000     0.000     0.000     0.000     0.000     0.000     0.000     0.000     0.000     0.000     0.000     0.000     0.000     0.000     0.000     0.000     0.000 .00000E+00 .00000E+00 0.250E+01 0.429E+04 0.000E+00 0.000E+00 0.000E+00 0.000E+00 0.000E+00 0.258E-03     0.000     0.015     0.000
PJNL    8 000020003    2    0    7.27187E-01     5.200     0.000     0.000     0.000    60.518    11.000    79.511    76.994     0.000     0.000     0.000     8.097     0.000     0.000   974.176  2000.000     0.000     0.000     0.000     0.000     0.000     0.000    89.209     4.545    14.200    -5.110     7.728    15.670     0.000     0.000     0.000     0.000     0.000     0.000     0.000     0.000     0.000     0.000     0.000     0.000     0.000     0.666    -0.029     0.000     0.114     0.768     1.958     0.000     0.000     0.000     0.000     0.000     0.000     0.000     0.000     0.000     0.000     0.000     0.000     0.000     0.000     0.000     0.000     0.000     0.000     0.000 .00000E+00 .00000E+00 0.250E+01 0.429E+04 0.000E+00 0.000E+00 0.000E+00 0.000E+00 0.000E+00 0.000E+00     0.000     0.000     0.000
BARR    9 000020004    2    0    7.10641E+01     5.200     0.000     0.000     0.000    60.518    10.966    79.374    76.870     0.000     0.000     0.000     8.237     0.000     0.000   973.732  2000.000     0.000     0.000     0.000     0.019     0.000     0.019    89.196     4.545    14.200    -5.110     7.730    15.670     0.000     0.000     0.000     0.000     0.000     0.000     0.000     0.000     0.000     0.000     0.000     0.000     0.000     0.666    -0.029     0.000     0.114     0.768     1.958     0.000     0.000     0.000     0.000     0.000     0.000     0.000     0.000     0.000     0.000     0.000     0.000     0.000     0.000     0.000     0.000     0.000     0.000     0.000 .00000E+00 .00000E+00 0.250E+01 0.429E+04 0.000E+00 0.000E+00 0.000E+00 0.000E+00 0.000E+00 0.324E-03     0.000     0.019     0.000
BARR   10 000020005    2    0    7.68751E-02     5.200     0.000     0.000     0.000    60.518    11.000    79.511    76.994     0.000     0.000     0.000     8.237     0.000     0.000   973.732  2000.000     0.000     0.000     0.000     0.000     0.000     0.000    89.209     4.545    14.200    -5.110     7.728    15.670     0.000     0.000     0.000     0.000     0.000     0.000     0.000     0.000     0.000     0.000     0.000     0.000     0.000     0.666    -0.029     0.000     0.114     0.768     1.958     0.000     0.000     0.000     0.000     0.000     0.000     0.000     0.000     0.000     0.000     0.000     0.000     0.000     0.000     0.000     0.000     0.000     0.000     0.000 .00000E+00 .00000E+00 0.250E+01 0.429E+04 0.000E+00 0.000E+00 0.000E+00 0.000E+00 0.000E+00 0.000E+00     0.000     0.000     0.000
PJNL   11 000030001    3    0    7.12831E+01     5.200     0.000     0.000     0.000    60.582    15.341    63.557    59.135     0.000     0.000     0.000     8.106     0.000     0.000   974.148  2000.000     0.000     0.000     0.000     0.021     0.000     0.021    87.468     4.545    14.200    -5.110     8.033    15.670     0.000     0.000     0.000     0.000     0.000     0.000     0.000     0.000     0.000     0.000     0.000     0.000     0.000     0.645    -0.028     0.000     0.111     0.768     1.957     0.000     0.000     0.000     0.000     0.000     0.000     0.000     0.000     0.000     0.000     0.000     0.000     0.000     0.000     0.000     0.000     0.000     0.000     0.000 .00000E+00 .00000E+00 0.250E+01 0.429E+04 0.000E+00 0.000E+00 0.000E+00 0.000E+00 0.000E+00 0.410E-03     0.000     0.021     0.000
PJNL   12 000030002    3    0    7.19844E-01     5.200     0.000     0.000     0.000    60.582    15.378    63.698    59.261     0.000     0.000     0.000     8.106     0.000     0.000   974.148  2000.000     0.000     0.000     0.000     0.000     0.000     0.000    87.485     4.545    14.200    -5.110     8.029    15.670     0.000     0.000     0.000     0.000     0.000     0.000     0.000     0.000     0.000     0.000     0.000     0.000     0.000     0.646    -0.028     0.000     0.111     0.768     1.955     0.000     0.000     0.000     0.000     0.000     0.000     0.000     0.000     0.000     0.000     0.000     0.000     0.000     0.000     0.000     0.000     0.000     0.000     0.000 .00000E+00 .00000E+00 0.250E+01 0.429E+04 0.000E+00 0.000E+00 0.000E+00 0.000E+00 0.000E+00 0.000E+00     0.000     0.000     0.000
BARR   13 000030003    3    0    7.42609E+00     5.200     0.000     0.000     0.000    60.582    10.964    79.336    76.832     0.000     0.000     0.000     8.245     0.000     0.000   973.704  2000.000     0.000     0.000     0.000     0.022     0.000     0.022    89.192     4.545    14.200    -5.110     7.731    15.670     0.000     0.000     0.000     0.000     0.000     0.000     0.000     0.000     0.000     0.000     0.000     0.000     0.000     0.665    -0.029     0.000     0.114     0.768     1.959     0.000     0.000     0.000     0.000     0.000     0.000     0.000     0.000     0.000     0.000     0.000     0.000     0.000     0.000     0.000     0.000     0.000     0.000     0.000 .00000E+00 .00000E+00 0.250E+01 0.429E+04 0.000E+00 0.000E+00 0.000E+00 0.000E+00 0.000E+00 0.371E-03     0.000     0.022     0.000
BARR   14 000030004    3    0    7.29688E-02     5.200     0.000     0.000     0.000    60.582    11.002    79.492    76.973     0.000     0.000     0.000     8.245     0.000     0.000   973.704  2000.000     0.000     0.000     0.000     0.000     0.000     0.000    89.207     4.545    14.200    -5.110     7.728    15.670     0.000     0.000     0.000     0.000     0.000     0.000     0.000     0.000     0.000     0.000     0.000     0.000     0.000     0.666    -0.029     0.000     0.114     0.768     1.958     0.000     0.000     0.000     0.000     0.000     0.000     0.000     0.000     0.000     0.000     0.000     0.000     0.000     0.000     0.000     0.000     0.000     0.000     0.000 .00000E+00 .00000E+00 0.250E+01 0.429E+04 0.000E+00 0.000E+00 0.000E+00 0.000E+00 0.000E+00 0.000E+00     0.000     0.000     0.000
WETN   15 000030005    3    0    7.25625E-01     5.200     0.000     0.000     0.000    60.582    11.002    79.492    76.973     0.000     0.000     0.000     1.212     0.000     0.000   996.136  2000.000     0.000     0.000     0.000     0.000     0.000     0.000    89.207     4.545    14.200    -5.110     7.728    15.670     0.000     0.000     0.000     0.000     0.000     0.000     0.000     0.000     0.000     0.000     0.000     0.000     0.000     0.666    -0.029     0.000     0.114     0.768     1.958     0.000     0.000     0.000     0.000     0.000     0.000     0.000     0.000     0.000     0.000     0.000     0.000     0.000     0.000     0.000     0.000     0.000     0.000     0.000 .00000E+00 .00000E+00 0.250E+01 0.429E+04 0.000E+00 0.000E+00 0.000E+00 0.000E+00 0.000E+00 0.000E+00     0.000     0.000     0.000
ES10   16 000030006    3    0    7.33750E-01     5.200     0.000     0.000     0.000    60.582    10.969    79.357    76.851     0.000     0.000     0.000     1.212     0.000     0.000   996.136  2000.000     0.000     0.000     0.000     0.019     0.000     0.019    89.194     4.545    14.200    -5.110     7.731    15.670     0.000     0.000     0.000     0.000     0.000     0.000     0.000     0.000     0.000     0.000     0.000     0.000     0.000     0.666    -0.029     0.000     0.114     0.768     1.958     0.000     0.000     0.000     0.000     0.000     0.000     0.000     0.000     0.000     0.000     0.000     0.000     0.000     0.000     0.000     0.000     0.000     0.000     0.000 .00000E+00 .00000E+00 0.250E+01 0.429E+04 0.000E+00 0.000E+00 0.000E+00 0.000E+00 0.000E+00 0.320E-03     0.000     0.019     0.000
ES9    17 000030007    3    0    7.15625E-01     5.200     0.000     0.000     0.000    60.582    10.969    79.354    76.849     0.000     0.000     0.000     1.212     0.000     0.000   996.136  2000.000     0.000     0.000     0.000     0.019     0.000     0.019    89.194     4.545    14.200    -5.110     7.731    15.670     0.000     0.000     0.000     0.000     0.000     0.000     0.000     0.000     0.000     0.000     0.000     0.000     0.000     0.666    -0.029     0.000     0.114     0.768     1.958     0.000     0.000     0.000     0.000     0.000     0.000     0.000     0.000     0.000     0.000     0.000     0.000     0.000     0.000     0.000     0.000     0.000     0.000     0.000 .00000E+00 .00000E+00 0.250E+01 0.429E+04 0.000E+00 0.000E+00 0.000E+00 0.000E+00 0.000E+00 0.325E-03     0.000     0.019     0.000
ES9    18 000030008    3    0    7.31258E-03     5.200     0.000     0.000     0.000    60.582    11.002    79.492    76.973     0.000     0.000     0.000     1.212     0.000     0.000   996.136  2000.000     0.000     0.000     0.000     0.000     0.000     0.000    89.207     4.545    14.200    -5.110     7.728    15.670     0.000     0.000     0.000     0.000     0.000     0.000     0.000     0.000     0.000     0.000     0.000     0.000     0.000     0.666    -0.029     0.000     0.114     0.768     1.958     0.000     0.000     0.000     0.000     0.000     0.000     0.000     0.000     0.000     0.000     0.000     0.000     0.000     0.000     0.000     0.000     0.000     0.000     0.000 .00000E+00 .00000E+00 0.250E+01 0.429E+04 0.000E+00 0.000E+00 0.000E+00 0.000E+00 0.000E+00 0.000E+00     0.000     0.000     0.000
ES11   19 000030009    3    0    7.18281E-01     5.200     0.000     0.000     0.000    60.582    10.956    79.303    76.803     0.000     0.000     0.000     1.212     0.000     0.000   996.136  2000.000     0.000     0.000     0.000     0.026     0.000     0.026    89.189     4.545    14.200    -5.110     7.731    15.670     0.000     0.000     0.000     0.000     0.000     0.000     0.000     0.000     0.000     0.000     0.000     0.000     0.000     0.665    -0.029     0.000     0.114     0.768     1.959     0.000     0.000     0.000     0.000     0.000     0.000     0.000     0.000     0.000     0.000     0.000     0.000     0.000     0.000     0.000     0.000     0.000     0.000     0.000 .00000E+00 .00000E+00 0.250E+01 0.429E+04 0.000E+00 0.000E+00 0.000E+00 0.000E+00 0.000E+00 0.450E-03     0.000     0.026     0.000
ES12   20 000030010    3    0    7.68751E-02     5.200     0.000     0.000     0.000    60.582    10.946    79.261    76.765     0.000     0.000     0.000     1.212     0.000     0.000   996.136  2000.000     0.000     0.000     0.000     0.032     0.000     0.032    89.185     4.545    14.200    -5.110     7.732    15.670     0.000     0.000     0.000     0.000     0.000     0.000     0.000     0.000     0.000     0.000     0.000     0.000     0.000     0.665    -0.029     0.000     0.114     0.768     1.959     0.000     0.000     0.000     0.000     0.000     0.000     0.000     0.001     0.000     0.000     0.000     0.000     0.000     0.000     0.000     0.000     0.000     0.000     0.000 .00000E+00 .00000E+00 0.250E+01 0.429E+04 0.000E+00 0.000E+00 0.000E+00 0.000E+00 0.000E+00 0.555E-03     0.000     0.032     0.000
ES13   21 000030011    3    0    7.18749E-02     5.200     0.000     0.000     0.000    60.582    10.945    79.255    76.759     0.000     0.000     0.000     1.212     0.000     0.000   996.136  2000.000     0.000     0.000     0.000     0.033     0.000     0.033    89.184     4.545    14.200    -5.110     7.732    15.670     0.000     0.000     0.000     0.000     0.000     0.000     0.000     0.000     0.000     0.000     0.000     0.000     0.000     0.665    -0.029     0.000     0.114     0.768     1.959     0.000     0.000     0.000     0.000     0.000     0.000     0.000     0.001     0.000     0.000     0.000     0.000     0.000     0.000     0.000     0.000     0.000     0.000     0.000 .00000E+00 .00000E+00 0.250E+01 0.429E+04 0.000E+00 0.280E+04 0.176E+06 0.000E+00 0.000E+00 0.571E-03     0.000     0.033     0.000
PJNL    1 000010001    1    0    8.13850E+01    17.000     0.000     0.000     0.000    52.299    14.468    78.149    79.075     0.000     0.000     0.000     6.998     0.000     0.000   967.273  2000.000     0.000     0.000     0.000     0.330     0.000     0.330    89.075     3.973    12.794    -4.848     6.707    14.230     0.000     0.000     0.000     0.000     0.000     0.000     0.000     0.000     0.000     0.000     0.000     0.000     0.000     0.652    -0.038     0.000     0.112     0.521     1.407     0.000     0.000     0.000     0.000     0.000     0.000     0.000     0.006     0.000     0.000     0.000     0.000     0.000     0.000     0.000     0.000     0.000     0.000     0.000 .00000E+00 .00000E+00 0.250E+01 0.429E+04 0.000E+00 0.000E+00 0.000E+00 0.000E+00 0.000E+00 0.558E-02     0.000     0.330     0.000
PJNL    2 000010002    1    0    8.33594E-01    17.000     0.000     0.000     0.000    52.299    14.535    78.498    79.532     0.000     0.000     0.000     6.998     0.000     0.000   967.273  2000.000     0.000     0.000     0.000     0.000     0.000     0.000    89.109     3.973    12.794    -4.848     6.701    14.230     0.000     0.000     0.000     0.000     0.000     0.000     0.000     0.000     0.000     0.000     0.000     0.000     0.000     0.653    -0.038     0.000     0.112     0.522     1.410     0.000     0.000     0.000     0.000     0.000     0.000     0.000     0.000     0.000     0.000     0.000     0.000     0.000     0.000     0.000     0.000     0.000     0.000     0.000 .00000E+00 .00000E+00 0.250E+01 0.429E+04 0.000E+00 0.000E+00 0.000E+00 0.000E+00 0.000E+00 0.000E+00     0.000     0.000     0.000
WETN    3 000010003    1    0    8.71719E-01    17.000     0.000     0.000     0.000    52.299    14.535    78.498    79.532     0.000     0.000     0.000     1.046     0.000     0.000   995.108  2000.000     0.000     0.000     0.000     0.000     0.000     0.000    89.109     3.973    12.794    -4.848     6.701    14.230     0.000     0.000     0.000     0.000     0.000     0.000     0.000     0.000     0.000     0.000     0.000     0.000     0.000     0.653    -0.038     0.000     0.112     0.522     1.410     0.000     0.000     0.000     0.000     0.000     0.000     0.000     0.000     0.000     0.000     0.000     0.000     0.000     0.000     0.000     0.000     0.000     0.000     0.000 .00000E+00 .00000E+00 0.250E+01 0.429E+04 0.000E+00 0.000E+00 0.000E+00 0.000E+00 0.000E+00 0.000E+00     0.000     0.000     0.000
BARR    4 000010004    1    0    8.22984E+00    17.000     0.000     0.000     0.000    52.299    14.459    78.106    79.018     0.000     0.000     0.000     7.118     0.000     0.000   966.710  2000.000     0.000     0.000     0.000     0.372     0.000     0.372    89.071     3.973    12.794    -4.848     6.708    14.230     0.000     0.000     0.000     0.000     0.000     0.000     0.000     0.000     0.000     0.000     0.000     0.000     0.000     0.651    -0.038     0.000     0.112     0.521     1.407     0.000     0.000     0.000     0.000     0.000     0.000     0.000     0.006     0.000     0.000     0.000     0.000     0.000     0.000     0.000     0.000     0.000     0.000     0.000 .00000E+00 .00000E+00 0.250E+01 0.429E+04 0.000E+00 0.000E+00 0.000E+00 0.000E+00 0.000E+00 0.631E-02     0.000     0.372     0.000
BARR    5 000010005    1    0    8.24999E-02    17.000     0.000     0.000     0.000    52.299    14.535    78.498    79.532     0.000     0.000     0.000     7.118     0.000     0.000   966.710  2000.000     0.000     0.000     0.000     0.000     0.000     0.000    89.109     3.973    12.794    -4.848     6.701    14.230     0.000     0.000     0.000     0.000     0.000     0.000     0.000     0.000     0.000     0.000     0.000     0.000     0.000     0.653    -0.038     0.000     0.112     0.522     1.410     0.000     0.000     0.000     0.000     0.000     0.000     0.000     0.000     0.000     0.000     0.000     0.000     0.000     0.000     0.000     0.000     0.000     0.000     0.000 .00000E+00 .00000E+00 0.250E+01 0.429E+04 0.000E+00 0.000E+00 0.000E+00 0.000E+00 0.000E+00 0.000E+00     0.000     0.000     0.000
WETN    6 000020001    2    0    8.22531E+00    17.000     0.000     0.000     0.000    52.489    14.550    78.419    79.444     0.000     0.000     0.000     1.050     0.000     0.000   995.090  2000.000     0.000     0.000     0.000     0.000     0.000     0.000    89.102     3.973    12.794    -4.848     6.703    14.230     0.000     0.000     0.000     0.000     0.000     0.000     0.000     0.000     0.000     0.000     0.000     0.000     0.000     0.653    -0.038     0.000     0.112     0.522     1.409     0.000     0.000     0.000     0.000     0.000     0.000     0.000     0.000     0.000     0.000     0.000     0.000     0.000     0.000     0.000     0.000     0.000     0.000     0.000 .00000E+00 .00000E+00 0.250E+01 0.429E+04 0.000E+00 0.000E+00 0.000E+00 0.000E+00 0.000E+00 0.000E+00     0.000     0.000     0.000
PJNL    7 000020002    2    0    8.90938E+00    17.000     0.000     0.000     0.000    52.489    14.502    78.171    79.119     0.000     0.000     0.000     7.023     0.000     0.000   967.153  2000.000     0.000     0.000     0.000     0.235     0.000     0.235    89.077     3.973    12.794    -4.848     6.707    14.230     0.000     0.000     0.000     0.000     0.000     0.000     0.000     0.000     0.000     0.000     0.000     0.000     0.000     0.652    -0.038     0.000     0.112     0.522     1.408     0.000     0.000     0.000     0.000     0.000     0.000     0.000     0.004     0.000     0.000     0.000     0.000     0.000     0.000     0.000     0.000     0.000     0.000     0.000 .00000E+00 .00000E+00 0.250E+01 0.429E+04 0.000E+00 0.000E+00 0.000E+00 0.000E+00 0.000E+00 0.395E-02     0.000     0.235     0.000
PJNL    8 000020003    2    0    8.27187E-01    17.000     0.000     0.000     0.000    52.489    14.550    78.419    79.444     0.000     0.000     0.000     7.023     0.000     0.000   967.153  2000.000     0.000     0.000     0.000     0.000     0.000     0.000    89.102     3.973    12.794    -4.848     6.703    14.230     0.000     0.000     0.000     0.000     0.000     0.000     0.000     0.000     0.000     0.000     0.000     0.000     0.000     0.653    -0.038     0.000     0.112     0.522     1.409     0.000     0.000     0.000     0.000     0.000     0.000     0.000     0.000     0.000     0.000     0.000     0.000     0.000     0.000     0.000     0.000     0.000     0.000     0.000 .00000E+00 .00000E+00 0.250E+01 0.429E+04 0.000E+00 0.000E+00 0.000E+00 0.000E+00 0.000E+00 0.000E+00     0.000     0.000     0.000
BARR    9 000020004    2    0    8.10641E+01    17.000     0.000     0.000     0.000    52.489    14.490    78.109    79.038     0.000     0.000     0.000     7.144     0.000     0.000   966.588  2000.000     0.000     0.000     0.000     0.294     0.000     0.294    89.071     3.973    12.794    -4.848     6.708    14.230     0.000     0.000     0.000     0.000     0.000     0.000     0.000     0.000     0.000     0.000     0.000     0.000     0.000     0.651    -0.038     0.000     0.112     0.521     1.407     0.000     0.000     0.000     0.000     0.000     0.000     0.000     0.005     0.000     0.000     0.000     0.000     0.000     0.000     0.000     0.000     0.000     0.000     0.000 .00000E+00 .00000E+00 0.250E+01 0.429E+04 0.000E+00 0.000E+00 0.000E+00 0.000E+00 0.000E+00 0.497E-02     0.000     0.294     0.000
BARR   10 000020005    2    0    8.68751E-02    17.000     0.000     0.000     0.000    52.489    14.550    78.419    79.444     0.000     0.000     0.000     7.144     0.000     0.000   966.588  2000.000     0.000     0.000     0.000     0.000     0.000     0.000    89.102     3.973    12.794    -4.848     6.703    14.230     0.000     0.000     0.000     0.000     0.000     0.000     0.000     0.000     0.000     0.000     0.000     0.000     0.000     0.653    -0.038     0.000     0.112     0.522     1.409     0.000     0.000     0.000     0.000     0.000     0.000     0.000     0.000     0.000     0.000     0.000     0.000     0.000     0.000     0.000     0.000     0.000     0.000     0.000 .00000E+00 .00000E+00 0.250E+01 0.429E+04 0.000E+00 0.000E+00 0.000E+00 0.000E+00 0.000E+00 0.000E+00     0.000     0.000     0.000
[...]
ES12   20 000030010    3    0 1990.68751E-02   478.700     0.000     0.000     0.000   389.955   243.291   134.899   170.081   127.709   137.886     6.894     7.799     0.000     0.000   998.207  2000.766    42.708    42.709     0.000    72.597   129.186   252.385    78.965     4.244     9.795    -1.307     5.371     9.290   153.260   150.744     0.000     0.000     0.000     0.000     0.000     0.000     0.000     0.000     0.000     0.000     0.000     6.214    -5.113     0.000     1.063     0.990     1.040     0.000     0.000     0.000    25.427     3.109     2.489     0.002     0.249     3.031     0.023     0.001     0.000     0.000   126.000     0.000     0.000     0.000     0.000     0.000 .00000E+00 .00000E+00 0.757E+00 0.429E+04 0.000E+00 0.000E+00 0.000E+00 0.000E+00 0.000E+00 0.249E+00     7.894    72.597     0.000
ES13   21 000030011    3    0 1990.18749E-02   478.700     0.000     0.000     0.000   389.955   243.219   134.877   169.936   126.140   136.146     6.807     7.799     0.000     0.000   998.192  2000.756    42.698    42.699     0.000    74.399   127.418   252.305    78.964     4.244     9.795    -1.307     5.371     9.290   136.445   155.761     0.000     0.000     0.000     0.000     0.000     0.000     0.000     0.000     0.000     0.000     0.000     6.214    -5.113     0.000     1.063     0.989     1.040     0.000     0.000     0.000    24.572     3.004     2.404     0.002     0.256     3.008     0.022     0.001     0.000    -0.000   126.000     0.000     0.000     0.000     0.000     0.000 .00000E+00 .00000E+00 0.757E+00 0.429E+04 0.000E+00 0.280E+04 0.176E+06 0.000E+00 0.000E+00 0.256E+00     7.790    74.399     0.000
PJNL    1 000010001    1    0  9.5.13850E+01  1015.174     0.000     0.000     0.000   439.956   273.012   158.061   169.657   380.644   380.640   363.778    43.076     0.000     0.000   750.000  2016.919   234.304   234.305     0.000   119.606     0.000   715.914    93.928     4.740    11.140    -1.659     6.219    10.640   829.557   450.836     0.000     0.000     0.000     0.000     0.000     0.000     0.000     0.000     0.000     0.000     0.000     7.862    -4.106     0.000     1.347     1.875     4.206     0.000     0.000     0.000    49.495     6.059     4.837     0.003     0.464     9.290     0.000     0.002     0.000     0.000   146.132     0.000     0.000     0.000     0.105     0.000 .00000E+00 .00000E+00 0.751E+00 0.000E+00 0.000E+00 0.000E+00 0.000E+00 0.000E+00 0.000E+00 0.464E+00   362.004   119.606     0.000
PJNL    2 000010002    1    0  9.5.33594E-01  1015.174     0.000     0.000     0.000   439.956   274.569   158.974   173.350   496.138   496.132   474.154    48.192     0.000     0.000   750.000  2022.465   236.579   236.575     0.000     0.002     0.000   708.375    93.964     4.740    11.140    -1.659     6.217    10.640     1.152     3.775     0.000     0.000     0.000     0.000     0.000     0.000     0.000     0.000     0.000     0.000     0.000     8.024    -4.200     0.000     1.374     1.669     3.940     0.000     0.000     0.000    12.611     1.543     1.171     0.005     0.000    10.912     0.000     0.041     0.000     0.000   146.132     0.000     0.000     0.000     0.105     0.000 .00000E+00 .00000E+00 0.750E+00 0.000E+00 0.000E+00 0.000E+00 0.000E+00 0.000E+00 0.000E+00 0.000E+00   471.798     0.002     0.000
WETN    3 000010003    1    0  9.5.71719E-01  1015.174     0.000     0.000     0.000   439.956   272.438   159.517   175.305   497.913   497.907   475.849     8.799     0.000     0.000  1126.443  2022.556   236.731   236.730     0.000     0.002     0.000   710.217    93.989     4.740    11.140    -1.659     6.214    10.640     1.860     3.799     0.000     0.000     0.000     0.000     0.000     0.000     0.000     0.000     0.000     0.000     0.000     8.019    -4.195     0.000     1.374     1.689     3.983     0.000     0.000     0.000    17.711     2.168     1.657     0.005     0.000    10.911     0.000     0.036     0.000     0.000   146.168     0.000     0.000     0.000     0.000     0.000 .00000E+00 .00000E+00 0.751E+00 0.000E+00 0.000E+00 0.000E+00 0.000E+00 0.000E+00 0.000E+00 0.000E+00   473.484     0.002     0.000
BARR    4 000010004    1    0  9.5.22984E+00  1015.174     0.000     0.000     0.000   439.956   270.325   158.612   171.571   369.535   368.601   352.272    42.543     0.000     0.000   750.000  2031.173   234.238   234.238     0.000   133.247     0.000   716.488    93.954     4.740    11.140    -1.659     6.217    10.640   825.360   540.004     0.000     0.000     0.000     0.000     0.000     0.000     0.000     0.000     0.000     0.000     0.000     7.876    -4.112     0.000     1.349     1.885     4.215     0.000     0.000     0.000    49.486     6.058     4.836     0.004     0.519     9.128     0.000     0.002     0.000     0.067   146.168     0.000     0.000     0.000     0.000     0.000 .00000E+00 .00000E+00 0.751E+00 0.000E+00 0.000E+00 0.000E+00 0.000E+00 0.000E+00 0.000E+00 0.519E+00   349.003   133.247     0.000
BARR    5 000010005    1    0  9.5.24999E-02  1015.174     0.000     0.000     0.000   439.956   272.015   159.621   175.796   498.252   496.966   474.950    48.229     0.000     0.000   750.000  2042.850   236.763   236.759     0.000     0.002     0.000   707.218    93.994     4.740    11.140    -1.659     6.214    10.640     0.866     3.674     0.000     0.000     0.000     0.000     0.000     0.000     0.000     0.000     0.000     0.000     0.000     8.048    -4.214     0.000     1.379     1.660     3.918     0.000     0.000     0.000    10.034     1.228     0.929     0.005     0.000    10.935     0.000     0.045     0.000     0.019   146.168     0.000     0.000     0.000     0.000     0.000 .00000E+00 .00000E+00 0.751E+00 0.000E+00 0.000E+00 0.000E+00 0.000E+00 0.000E+00 0.000E+00 0.000E+00   470.457     0.002     0.000
WETN    6 000020001    2    0  9.5.22531E+00  1015.174     0.000     0.000     0.000   441.368   272.884   159.450   175.106   497.506   497.500   475.460     8.827     0.000     0.000  1126.002  2022.525   236.712   236.712     0.000     0.002     0.000   709.813    93.986     4.740    11.140    -1.659     6.215    10.640     2.127     3.799     0.000     0.000     0.000     0.000     0.000     0.000     0.000     0.000     0.000     0.000     0.000     8.012    -4.191     0.000     1.372     1.695     3.994     0.000     0.000     0.000    19.332     2.366     1.812     0.005     0.000    10.905     0.000     0.034     0.000     0.000   146.168     0.000     0.000     0.000     0.000     0.000 .00000E+00 .00000E+00 0.756E+00 0.000E+00 0.000E+00 0.000E+00 0.000E+00 0.000E+00 0.000E+00 0.000E+00   473.099     0.002     0.000
PJNL    7 000020002    2    0  9.5.90938E+00  1015.174     0.000     0.000     0.000   441.368   273.933   158.245   170.470   410.988   410.983   392.776    44.420     0.000     0.000   750.000  2018.359   234.896   234.896     0.000    87.694     0.000   713.442    93.934     4.740    11.140    -1.659     6.219    10.640   449.945   252.641     0.000     0.000     0.000     0.000     0.000     0.000     0.000     0.000     0.000     0.000     0.000     7.867    -4.108     0.000     1.348     1.851     4.197     0.000     0.000     0.000    48.559     5.945     4.740     0.003     0.337     9.701     0.000     0.003     0.000     0.000   146.132     0.000     0.000     0.000     0.105     0.000 .00000E+00 .00000E+00 0.755E+00 0.000E+00 0.000E+00 0.000E+00 0.000E+00 0.000E+00 0.000E+00 0.337E+00   390.851    87.694     0.000
PJNL    8 000020003    2    0  9.5.27187E-01  1015.174     0.000     0.000     0.000   441.368   275.037   158.901   173.135   495.712   495.706   473.747    48.174     0.000     0.000   750.000  2022.434   236.559   236.555     0.000     0.002     0.000   707.952    93.960     4.740    11.140    -1.659     6.217    10.640     1.124     3.775     0.000     0.000     0.000     0.000     0.000     0.000     0.000     0.000     0.000     0.000     0.000     8.023    -4.200     0.000     1.374     1.668     3.938     0.000     0.000     0.000    12.364     1.513     1.148     0.005     0.000    10.911     0.000     0.042     0.000     0.000   146.132     0.000     0.000     0.000     0.105     0.000 .00000E+00 .00000E+00 0.755E+00 0.000E+00 0.000E+00 0.000E+00 0.000E+00 0.000E+00 0.000E+00 0.000E+00   471.394     0.002     0.000
BARR    9 000020004    2    0  9.5.10641E+01  1015.174     0.000     0.000     0.000   441.368   271.135   158.753   172.222   393.544   392.546   375.156    43.604     0.000     0.000   750.000  2033.327   234.701   234.702     0.000   107.921     0.000   714.284    93.960     4.740    11.140    -1.659     6.216    10.640   668.843   370.718     0.000     0.000     0.000     0.000     0.000     0.000     0.000     0.000     0.000     0.000     0.000     7.879    -4.114     0.000     1.350     1.868     4.204     0.000     0.000     0.000    49.204     6.024     4.806     0.003     0.417     9.457     0.000     0.003     0.000     0.068   146.168     0.000     0.000     0.000     0.000     0.000 .00000E+00 .00000E+00 0.756E+00 0.000E+00 0.000E+00 0.000E+00 0.000E+00 0.000E+00 0.000E+00 0.417E+00   371.662   107.921     0.000
BARR   10 000020005    2    0  9.5.68751E-02  1015.174     0.000     0.000     0.000   441.368   272.455   159.556   175.603   497.850   496.565   474.567    48.212     0.000     0.000   750.000  2042.796   236.745   236.741     0.000     0.002     0.000   706.823    93.991     4.740    11.140    -1.659     6.214    10.640     0.979     3.679     0.000     0.000     0.000     0.000     0.000     0.000     0.000     0.000     0.000     0.000     0.000     8.044    -4.211     0.000     1.378     1.664     3.927     0.000     0.000     0.000    11.084     1.356     1.027     0.005     0.000    10.931     0.000     0.043     0.000     0.027   146.168     0.000     0.000     0.000     0.000     0.000 .00000E+00 .00000E+00 0.756E+00 0.000E+00 0.000E+00 0.000E+00 0.000E+00 0.000E+00 0.000E+00 0.000E+00   470.080     0.002     0.000
PJNL   11 000030001    3    0  9.5.12831E+01  1015.174     0.000     0.000     0.000   441.778   320.688   140.138   126.556   350.620   350.616    17.531    59.110     0.000     0.000   975.688  2000.748   229.076   229.076     0.000   111.720   276.525   634.773    92.906     4.740    11.140    -1.659     6.340    10.640   750.350   424.141     0.000     0.000     0.000     0.000     0.000     0.000     0.000     0.000     0.000     0.000     0.000     7.708    -4.029     0.000     1.320     1.859     4.193     0.000     0.000     0.000    49.327     6.039     4.818     0.003     0.440     9.167     0.123     0.003     0.000    -0.000   146.132     0.000     0.000     0.000     0.105     0.000 .00000E+00 .00000E+00 0.754E+00 0.000E+00 0.000E+00 0.000E+00 0.000E+00 0.000E+00 0.000E+00 0.440E+00    17.452   111.720     0.000
PJNL   12 000030002    3    0  9.5.19844E-01  1015.174     0.000     0.000     0.000   441.778   322.288   141.600   130.000   457.651   457.646    22.882    59.110     0.000     0.000   977.544  2001.021   231.892   231.891     0.000     0.002   378.008   632.677    92.975     4.740    11.140    -1.659     6.333    10.640     1.065     3.675     0.000     0.000     0.000     0.000     0.000     0.000     0.000     0.000     0.000     0.000     0.000     7.874    -4.126     0.000     1.349     1.657     3.924     0.000     0.000     0.000    11.853     1.451     1.100     0.004     0.000    10.730     0.185     0.042     0.000    -0.000   146.132     0.000     0.000     0.000     0.105     0.000 .00000E+00 .00000E+00 0.754E+00 0.000E+00 0.000E+00 0.000E+00 0.000E+00 0.000E+00 0.000E+00 0.000E+00    22.775     0.002     0.000
BARR   13 000030003    3    0  9.5.42609E+00  1015.174     0.000     0.000     0.000   441.778   271.068   158.624   171.733   380.510   379.547    18.977    60.126     0.000     0.000   998.708  2001.682   234.441   234.441     0.000   121.322   300.579   675.143    93.954     4.740    11.140    -1.659     6.217    10.640   748.623   457.167     0.000     0.000     0.000     0.000     0.000     0.000     0.000     0.000     0.000     0.000     0.000     7.876    -4.112     0.000     1.349     1.877     4.210     0.000     0.000     0.000    49.361     6.044     4.823     0.003     0.471     9.282     0.087     0.003     0.000     0.079   146.168     0.000     0.000     0.000     0.000     0.000 .00000E+00 .00000E+00 0.757E+00 0.000E+00 0.000E+00 0.000E+00 0.000E+00 0.000E+00 0.000E+00 0.471E+00    18.801   121.322     0.000
BARR   14 000030004    3    0  9.5.29688E-02  1015.174     0.000     0.000     0.000   441.778   272.584   159.537   175.547   497.732   496.448    24.822    60.126     0.000     0.000   999.927  2002.238   236.740   236.736     0.000     0.002   411.507   672.833    93.990     4.740    11.140    -1.659     6.214    10.640     0.884     3.674     0.000     0.000     0.000     0.000     0.000     0.000     0.000     0.000     0.000     0.000     0.000     8.046    -4.212     0.000     1.378     1.661     3.919     0.000     0.000     0.000    10.207     1.249     0.945     0.005     0.000    10.933     0.136     0.044     0.000     0.030   146.168     0.000     0.000     0.000     0.000     0.000 .00000E+00 .00000E+00 0.757E+00 0.000E+00 0.000E+00 0.000E+00 0.000E+00 0.000E+00 0.000E+00 0.000E+00    24.588     0.002     0.000
WETN   15 000030005    3    0  9.5.25625E-01  1015.174     0.000     0.000     0.000   441.778   273.014   159.431   175.049   497.387   497.381    24.869     8.836     0.000     0.000  1198.778  2001.178   236.707   236.707     0.000     0.002   442.834   704.288    93.985     4.740    11.140    -1.659     6.215    10.640     1.645     3.799     0.000     0.000     0.000     0.000     0.000     0.000     0.000     0.000     0.000     0.000     0.000     8.023    -4.198     0.000     1.374     1.684     3.973     0.000     0.000     0.000    16.275     1.992     1.520     0.005     0.000    10.914     0.133     0.037     0.000     0.000   146.168     0.000     0.000     0.000     0.000     0.000 .00000E+00 .00000E+00 0.757E+00 0.000E+00 0.000E+00 0.000E+00 0.000E+00 0.000E+00 0.000E+00 0.000E+00    24.746     0.002     0.000
ES10   16 000030006    3    0  9.5.33750E-01  1015.174     0.000     0.000     0.000   441.778   271.282   158.745   172.215   394.772   394.767    19.738     8.836     0.000     0.000   998.439  2000.920   234.723   234.723     0.000   106.528   366.357   727.250    93.959     4.740    11.140    -1.659     6.216    10.640   439.775   362.104     0.000     0.000     0.000     0.000     0.000     0.000     0.000     0.000     0.000     0.000     0.000     7.881    -4.115     0.000     1.350     1.864     4.208     0.000     0.000     0.000    48.513     5.939     4.735     0.003     0.412     9.476     0.148     0.003     0.000     0.071   146.168     0.000     0.000     0.000     0.000     0.000 .00000E+00 .00000E+00 0.757E+00 0.000E+00 0.000E+00 0.000E+00 0.000E+00 0.000E+00 0.000E+00 0.412E+00    19.642   106.528     0.000
ES9    17 000030007    3    0  9.5.15625E-01  1015.174     0.000     0.000     0.000   441.778   271.259   158.732   172.163   393.227   393.222    19.661     8.836     0.000     0.000   998.433  2000.916   234.692   234.692     0.000   108.130   364.890   727.277    93.959     4.740    11.140    -1.659     6.216    10.640   412.286   372.012     0.000     0.000     0.000     0.000     0.000     0.000     0.000     0.000     0.000     0.000     0.000     7.881    -4.115     0.000     1.350     1.865     4.210     0.000     0.000     0.000    48.396     5.925     4.723     0.003     0.418     9.456     0.147     0.003     0.000     0.072   146.168     0.000     0.000     0.000     0.000     0.000 .00000E+00 .00000E+00 0.757E+00 0.000E+00 0.000E+00 0.000E+00 0.000E+00 0.000E+00 0.000E+00 0.418E+00    19.565   108.130     0.000
ES9    18 000030008    3    0  9.5.31258E-03  1015.174     0.000     0.000     0.000   441.778   272.584   159.537   175.547   497.732   497.726    24.886     8.836     0.000     0.000   998.730  2001.179   236.740   236.736     0.000     0.002   464.137   725.638    93.990     4.740    11.140    -1.659     6.214    10.640     0.658     3.650     0.000     0.000     0.000     0.000     0.000     0.000     0.000     0.000     0.000     0.000     0.000     8.054    -4.217     0.000     1.380     1.652     3.899     0.000     0.000     0.000     7.948     0.973     0.734     0.005     0.000    10.939     0.207     0.047     0.000     0.030   146.168     0.000     0.000     0.000     0.000     0.000 .00000E+00 .00000E+00 0.757E+00 0.000E+00 0.000E+00 0.000E+00 0.000E+00 0.000E+00 0.000E+00 0.000E+00    24.763     0.002     0.000
ES11   19 000030009    3    0  9.5.18281E-01  1015.174     0.000     0.000     0.000   441.778   270.725   158.434   171.000   359.159   359.155    17.958     8.836     0.000     0.000   998.312  2000.831   234.014   234.014     0.000   143.497   332.539   727.921    93.947     4.740    11.140    -1.659     6.217    10.640   697.641   615.925     0.000     0.000     0.000     0.000     0.000     0.000     0.000     0.000     0.000     0.000     0.000     7.874    -4.111     0.000     1.349     1.891     4.224     0.000     0.000     0.000    49.259     6.031     4.813     0.004     0.561     8.990     0.130     0.003     0.000     0.092   146.168     0.000     0.000     0.000     0.000     0.000 .00000E+00 .00000E+00 0.757E+00 0.000E+00 0.000E+00 0.000E+00 0.000E+00 0.000E+00 0.000E+00 0.561E+00    17.871   143.497     0.000
ES12   20 000030010    3    0  9.5.68751E-02  1015.174     0.000     0.000     0.000   441.778   270.287   158.209   170.081   332.977   332.973    16.649     8.836     0.000     0.000   998.207  2000.766   233.536   233.537     0.000   170.665   307.677   728.447    93.937     4.740    11.140    -1.659     6.218    10.640   831.228   825.131     0.000     0.000     0.000     0.000     0.000     0.000     0.000     0.000     0.000     0.000     0.000     7.871    -4.109     0.000     1.348     1.909     4.236     0.000     0.000     0.000    49.490     6.059     4.837     0.004     0.674     8.623     0.117     0.002     0.000     0.112   146.168     0.000     0.000     0.000     0.000     0.000 .00000E+00 .00000E+00 0.757E+00 0.000E+00 0.000E+00 0.000E+00 0.000E+00 0.000E+00 0.000E+00 0.674E+00    16.568   170.665     0.000
ES13   21 000030011    3    0  9.5.18749E-02  1015.174     0.000     0.000     0.000   441.778   270.220   158.177   169.936   328.899   328.895    16.445     8.836     0.000     0.000   998.192  2000.756   233.476   233.477     0.000   174.881   303.805   728.528    93.936     4.740    11.140    -1.659     6.218    10.640   739.977   857.458     0.000     0.000     0.000     0.000     0.000     0.000     0.000     0.000     0.000     0.000     0.000     7.871    -4.109     0.000     1.348     1.912     4.241     0.000     0.000     0.000    49.337     6.040     4.821     0.004     0.691     8.566     0.115     0.003     0.000     0.116   146.168     0.000     0.000     0.000     0.000     0.000 .00000E+00 .00000E+00 0.757E+00 0.000E+00 0.000E+00 0.280E+04 0.176E+06 0.000E+00 0.000E+00 0.691E+00    16.366   174.881     0.000
