1
    SWAT Nov 14  VER 2023/Rev 692                                                                        0/ 0/   0      0: 0: 0

    General Input/Output section (file.cio):                                        
    5/19/2025 12:00:00 AM ARCGIS-SWAT interface AV                                  
                                                                                    


       SUB      GIS  MON   AREAkm2  PRECIPmm SNOMELTmm     PETmm      ETmm      SWmm    PERCmm    SURQmm    GW_Qmm    WYLDmm  SYLDt/ha ORGNkg/ha ORGPkg/haNSURQkg/ha SOLPkg/ha SEDPkg/ha LAT Q(mm)LATNO3kg/hGWNO3kg/haCHOLAmic/LCBODU mg/L DOXQ mg/L TNO3kg/ha   QTILEmm TVAPkg/ha
BIGSUB    1        0    4.17227E+01     3.100     0.000    19.115     7.109    94.131     0.000     0.000     0.000     0.003     0.000     0.000     0.000     0.000     0.000     0.000     0.003     0.000     0.000 .00000E+00 0.000E+00 0.000E+00 0.000E+00 0.000E+00 0.000E+00
BIGSUB    2        0    4.22328E+01     3.100     0.000    19.157     7.119    94.122     0.000     0.000     0.000     0.002     0.000     0.000     0.000     0.000     0.000     0.000     0.002     0.000     0.000 .00000E+00 0.000E+00 0.000E+00 0.000E+00 0.000E+00 0.000E+00
BIGSUB    3        0    4.18344E+01     3.100     0.000    19.169     8.885    92.355     0.000     0.000     0.000     0.003     0.000     0.000     0.000     0.000     0.000     0.000     0.003     0.000     0.000 .00000E+00 0.000E+00 0.000E+00 0.000E+00 0.000E+00 0.000E+00
BIGSUB    1        0    5.17227E+01    11.300     0.000    53.156    15.609    89.691     0.000     0.000     0.000     0.065     0.000     0.000     0.000     0.000     0.000     0.000     0.065     0.001     0.000 .00000E+00 0.000E+00 0.000E+00 0.000E+00 0.000E+00 0.000E+00
BIGSUB    2        0    5.22328E+01    11.300     0.000    53.353    15.646    89.679     0.000     0.000     0.000     0.049     0.000     0.000     0.000     0.000     0.000     0.000     0.049     0.001     0.000 .00000E+00 0.000E+00 0.000E+00 0.000E+00 0.000E+00 0.000E+00
BIGSUB    3        0    5.18344E+01    11.300     0.000    53.411    19.681    83.845     0.000     0.000     0.000     0.065     0.000     0.000     0.000     0.000     0.000     0.000     0.065     0.002     0.000 .00000E+00 0.000E+00 0.000E+00 0.000E+00 0.000E+00 0.000E+00
BIGSUB    1        0    6.17227E+01     8.000     0.000    59.726    14.917    82.689     0.000     0.000     0.000     0.132     0.000     0.000     0.000     0.000     0.000     0.000     0.132     0.002     0.000 .00000E+00 0.000E+00 0.000E+00 0.000E+00 0.000E+00 0.000E+00
BIGSUB    2        0    6.22328E+01     8.000     0.000    59.979    14.948    82.668     0.000     0.000     0.000     0.098     0.000     0.000     0.000     0.000     0.000     0.000     0.098     0.002     0.000 .00000E+00 0.000E+00 0.000E+00 0.000E+00 0.000E+00 0.000E+00
BIGSUB    3        0    6.18344E+01     8.000     0.000    60.052    18.621    73.139     0.000     0.000     0.000     0.131     0.000     0.000     0.000     0.000     0.000     0.000     0.131     0.003     0.000 .00000E+00 0.000E+00 0.000E+00 0.000E+00 0.000E+00 0.000E+00
BIGSUB    1        0    7.17227E+01     5.200     0.000    60.300    10.955    76.934     0.000     0.000     0.000     0.021     0.000     0.000     0.000     0.000     0.000     0.000     0.020     0.000     0.000 .00000E+00 0.000E+00 0.000E+00 0.000E+00 0.000E+00 0.000E+00
BIGSUB    2        0    7.22328E+01     5.200     0.000    60.518    10.973    76.895     0.000     0.000     0.000     0.015     0.000     0.000     0.000     0.000     0.000     0.000     0.015     0.000     0.000 .00000E+00 0.000E+00 0.000E+00 0.000E+00 0.000E+00 0.000E+00
BIGSUB    3        0    7.18344E+01     5.200     0.000    60.582    14.074    64.266     0.000     0.000     0.000     0.020     0.000     0.000     0.000     0.000     0.000     0.000     0.020     0.000     0.000 .00000E+00 0.000E+00 0.000E+00 0.000E+00 0.000E+00 0.000E+00
BIGSUB    1        0    8.17227E+01    17.000     0.000    52.299    14.471    79.096     0.000     0.000     0.000     0.315     0.000     0.000     0.000     0.000     0.000     0.000     0.315     0.005     0.000 .00000E+00 0.000E+00 0.000E+00 0.000E+00 0.000E+00 0.000E+00
BIGSUB    2        0    8.22328E+01    17.000     0.000    52.489    14.502    79.118     0.000     0.000     0.000     0.236     0.000     0.000     0.000     0.000     0.000     0.000     0.236     0.004     0.000 .00000E+00 0.000E+00 0.000E+00 0.000E+00 0.000E+00 0.000E+00
BIGSUB    3        0    8.18344E+01    17.000     0.000    52.544    16.868    64.032     0.000     0.000     0.000     0.314     0.000     0.000     0.000     0.000     0.000     0.000     0.314     0.007     0.000 .00000E+00 0.000E+00 0.000E+00 0.000E+00 0.000E+00 0.000E+00
BIGSUB    1        0    9.17227E+01    23.000     0.000    44.899    18.446    83.055     0.000     0.000     0.000     0.497     0.000     0.000     0.000     0.000     0.000     0.000     0.497     0.003     0.000 .00000E+00 0.000E+00 0.000E+00 0.000E+00 0.000E+00 0.000E+00
BIGSUB    2        0    9.22328E+01    23.000     0.000    45.044    18.489    83.184     0.000     0.000     0.000     0.372     0.000     0.000     0.000     0.000     0.000     0.000     0.372     0.002     0.000 .00000E+00 0.000E+00 0.000E+00 0.000E+00 0.000E+00 0.000E+00
BIGSUB    3        0    9.18344E+01    23.000     0.000    45.086    20.336    66.103     0.000     0.000     0.000     0.494     0.000     0.000     0.000     0.000     0.000     0.000     0.494     0.004     0.000 .00000E+00 0.000E+00 0.000E+00 0.000E+00 0.000E+00 0.000E+00
BIGSUB    1        0   10.17227E+01    49.400     0.000    30.701    15.733   114.274     0.000     0.088     0.000     1.632     0.309     0.633     0.077     0.000     0.000     0.060     1.543     0.002     0.000 .00000E+00 0.000E+00 0.000E+00 0.000E+00 0.000E+00 0.000E+00
BIGSUB    2        0   10.22328E+01    49.400     0.000    30.758    15.855   114.869     0.000     0.092     0.000     1.248     0.204     0.460     0.056     0.000     0.000     0.044     1.156     0.002     0.000 .00000E+00 0.000E+00 0.000E+00 0.000E+00 0.000E+00 0.000E+00
BIGSUB    3        0   10.18344E+01    49.400     0.000    30.775    17.018    96.105     0.000     0.026     0.000     1.565     0.078     0.165     0.020     0.000     0.000     0.016     1.539     0.003     0.000 .00000E+00 0.000E+00 0.000E+00 0.000E+00 0.000E+00 0.000E+00
BIGSUB    1        0   11.17227E+01   115.800     0.000    19.407    18.922   180.642     7.921    10.802     0.000    19.398    40.910    69.844     8.555     0.002     0.003     6.671     8.586     0.184     0.000 .00000E+00 0.000E+00 0.000E+00 0.000E+00 0.000E+00 0.000E+00
BIGSUB    2        0   11.22328E+01   115.800     0.000    19.441    18.955   180.832    10.778    10.959     0.000    17.519    26.711    51.775     6.342     0.002     0.003     4.943     6.545     0.143     0.000 .00000E+00 0.000E+00 0.000E+00 0.000E+00 0.000E+00 0.000E+00
BIGSUB    3        0   11.18344E+01   115.800     0.000    19.450    19.090   170.675     2.228     8.692     0.000    17.126    31.347    56.638     6.937     0.002     0.002     5.407     8.434     0.172     0.000 .00000E+00 0.000E+00 0.000E+00 0.000E+00 0.000E+00 0.000E+00
BIGSUB    1        0   12.17227E+01   187.700     0.000    18.251    18.024   182.100    95.169    46.695     0.000    71.023   142.288   106.194    13.007     0.004     0.005    10.341    20.979     0.536     0.000 .00000E+00 0.000E+00 0.000E+00 0.000E+00 0.000E+00 0.000E+00
BIGSUB    2        0   12.22328E+01   187.700     0.000    18.254    17.957   182.497   101.120    46.680     0.000    65.846    91.844   100.758    12.341     0.004     0.007     9.752    16.112     0.416     0.000 .00000E+00 0.000E+00 0.000E+00 0.000E+00 0.000E+00 0.000E+00
BIGSUB    3        0   12.18344E+01   187.700     0.000    18.255    18.142   182.103    86.439    46.357     0.337    66.535   131.736   121.212    14.846     0.004     0.006    11.752    19.746     0.484     0.001 .00000E+00 0.000E+00 0.000E+00 0.000E+00 0.000E+00 0.000E+00
BIGSUB    1        0 1981.17227E+01   420.500     0.000   357.854   134.185   182.100   103.090    57.585     0.000    93.085   183.507   176.670    21.639     0.006     0.008    17.072    32.140     0.735     0.000 .00000E+00 0.000E+00 0.000E+00 0.000E+00 0.000E+00 0.000E+00
BIGSUB    2        0 1981.22328E+01   420.500     0.000   358.993   134.443   182.497   111.897    57.731     0.000    85.386   118.759   152.993    18.739     0.007     0.010    14.739    24.584     0.571     0.000 .00000E+00 0.000E+00 0.000E+00 0.000E+00 0.000E+00 0.000E+00
BIGSUB    3        0 1981.18344E+01   420.500     0.000   359.324   152.715   182.103    88.667    55.075     0.337    86.253   163.160   178.016    21.804     0.006     0.008    17.175    30.745     0.674     0.001 .00000E+00 0.000E+00 0.000E+00 0.000E+00 0.000E+00 0.000E+00
BIGSUB    1        0    1.17227E+01   205.900     0.000    13.359    13.359   182.245   113.034    48.844     0.000    95.039   150.706    35.082     4.297     0.001     0.003     3.473    29.056     0.479     0.000 .00000E+00 0.000E+00 0.000E+00 0.000E+00 0.000E+00 0.000E+00
BIGSUB    2        0    1.22328E+01   205.900     0.000    13.364    13.364   182.674   120.088    48.974     0.000    86.309    97.342    38.596     4.727     0.001     0.004     3.801    22.211     0.363     0.000 .00000E+00 0.000E+00 0.000E+00 0.000E+00 0.000E+00 0.000E+00
BIGSUB    3        0    1.18344E+01   205.900     0.000    13.366    13.366   182.242   113.014    48.825    12.669    91.220   142.296    39.058     4.784     0.001     0.003     3.866    29.010     0.507     0.031 .00000E+00 0.000E+00 0.000E+00 0.000E+00 0.000E+00 0.000E+00
BIGSUB    1        0    2.17227E+01   310.000     0.000    22.544    22.544   181.199   137.517   113.949     0.000   185.638   469.432     4.922     0.603     0.001     0.003     0.529    38.508     0.311     0.000 .00000E+00 0.000E+00 0.000E+00 0.000E+00 0.000E+00 0.000E+00
BIGSUB    2        0    2.22328E+01   310.000     0.000    22.573    22.572   181.429   146.205   114.300     0.000   173.293   303.298    12.137     1.487     0.001     0.005     1.246    29.418     0.232     0.000 .00000E+00 0.000E+00 0.000E+00 0.000E+00 0.000E+00 0.000E+00
BIGSUB    3        0    2.18344E+01   310.000     0.000    22.581    22.581   181.197   137.463   113.856    60.220   214.134   442.910     6.213     0.761     0.000     0.002     0.666    38.525     0.330     0.141 .00000E+00 0.000E+00 0.000E+00 0.000E+00 0.000E+00 0.000E+00
BIGSUB    1        0    3.17227E+01   142.100     0.000    26.536    26.244   178.306    67.142    33.129     0.000   110.255   123.347     0.149     0.018     0.000     0.000     0.018    22.566     0.104     0.000 .00000E+00 0.000E+00 0.000E+00 0.000E+00 0.000E+00 0.000E+00
BIGSUB    2        0    3.22328E+01   142.100     0.000    26.641    26.349   178.340    71.542    33.195     0.000   100.367    79.609     0.330     0.040     0.000     0.001     0.038    17.248     0.077     0.000 .00000E+00 0.000E+00 0.000E+00 0.000E+00 0.000E+00 0.000E+00
BIGSUB    3        0    3.18344E+01   142.100     0.000    26.671    26.584   178.202    66.935    33.103    91.381   149.654   116.423     0.055     0.007     0.000     0.000     0.010    22.546     0.109     0.141 .00000E+00 0.000E+00 0.000E+00 0.000E+00 0.000E+00 0.000E+00
BIGSUB    1        0    4.17227E+01    72.500     0.000    32.404    28.833   177.144    24.837    12.349     0.000    84.124    36.556     0.060     0.007     0.000     0.000     0.006    11.937     0.040     0.000 .00000E+00 0.000E+00 0.000E+00 0.000E+00 0.000E+00 0.000E+00
BIGSUB    2        0    4.22328E+01    72.500     0.000    32.522    28.943   177.179    26.512    12.374     0.000    78.317    23.608     0.133     0.016     0.000     0.000     0.014     9.126     0.029     0.000 .00000E+00 0.000E+00 0.000E+00 0.000E+00 0.000E+00 0.000E+00
BIGSUB    3        0    4.18344E+01    72.500     0.000    32.556    31.498   175.480    23.956    12.305    78.278   105.345    34.340     0.022     0.003     0.000     0.000     0.003    11.820     0.041     0.071 .00000E+00 0.000E+00 0.000E+00 0.000E+00 0.000E+00 0.000E+00
BIGSUB    1        0    5.17227E+01    16.800     0.000    52.498    31.361   161.932     0.000     0.269     0.000    59.385     1.031     0.001     0.000     0.000     0.000     0.000     1.449     0.003     0.000 .00000E+00 0.000E+00 0.000E+00 0.000E+00 0.000E+00 0.000E+00
BIGSUB    2        0    5.22328E+01    16.800     0.000    52.716    31.488   161.938     0.000     0.272     0.000    58.808     0.665     0.003     0.000     0.000     0.000     0.000     1.105     0.002     0.000 .00000E+00 0.000E+00 0.000E+00 0.000E+00 0.000E+00 0.000E+00
BIGSUB    3        0    5.18344E+01    16.800     0.000    52.780    40.968   150.687     0.000     0.237    52.059    56.564     0.859     0.001     0.000     0.000     0.000     0.000     1.383     0.002     0.026 .00000E+00 0.000E+00 0.000E+00 0.000E+00 0.000E+00 0.000E+00
BIGSUB    1        0    6.17227E+01     7.700     0.000    58.457    23.079   146.525     0.000     0.000     0.000    46.322     0.000     0.000     0.000     0.000     0.000     0.000     0.099     0.000     0.000 .00000E+00 0.000E+00 0.000E+00 0.000E+00 0.000E+00 0.000E+00
BIGSUB    2        0    6.22328E+01     7.700     0.000    58.687    23.133   146.485     0.000     0.000     0.000    48.682     0.000     0.000     0.000     0.000     0.000     0.000     0.075     0.000     0.000 .00000E+00 0.000E+00 0.000E+00 0.000E+00 0.000E+00 0.000E+00
BIGSUB    3        0    6.18344E+01     7.700     0.000    58.754    30.784   127.576     0.000     0.000    13.959    16.410     0.000     0.000     0.000     0.000     0.000     0.000     0.096     0.000     0.006 .00000E+00 0.000E+00 0.000E+00 0.000E+00 0.000E+00 0.000E+00
BIGSUB    1        0    7.17227E+01     6.700     0.000    61.193    17.516   135.709     0.000     0.000     0.000    37.667     0.000     0.000     0.000     0.000     0.000     0.000     0.013     0.000     0.000 .00000E+00 0.000E+00 0.000E+00 0.000E+00 0.000E+00 0.000E+00
BIGSUB    2        0    7.22328E+01     6.700     0.000    61.413    17.093   136.093     0.000     0.000     0.000    41.798     0.000     0.000     0.000     0.000     0.000     0.000     0.010     0.000     0.000 .00000E+00 0.000E+00 0.000E+00 0.000E+00 0.000E+00 0.000E+00
BIGSUB    3        0    7.18344E+01     6.700     0.000    61.478    23.042   111.234     0.000     0.000     4.324     6.289     0.000     0.000     0.000     0.000     0.000     0.000     0.013     0.000     0.002 .00000E+00 0.000E+00 0.000E+00 0.000E+00 0.000E+00 0.000E+00
BIGSUB    1        0    8.17227E+01    12.300     0.000    42.110    16.743   131.122     0.000     0.000     0.000    28.952     0.000     0.000     0.000     0.000     0.000     0.000     0.066     0.000     0.000 .00000E+00 0.000E+00 0.000E+00 0.000E+00 0.000E+00 0.000E+00
BIGSUB    2        0    8.22328E+01    12.300     0.000    42.278    16.246   132.042     0.000     0.000     0.000    33.809     0.000     0.000     0.000     0.000     0.000     0.000     0.048     0.000     0.000 .00000E+00 0.000E+00 0.000E+00 0.000E+00 0.000E+00 0.000E+00
BIGSUB    3        0    8.18344E+01    12.300     0.000    42.327    19.632   103.762     0.000     0.000     2.805     4.395     0.000     0.000     0.000     0.000     0.000     0.000     0.065     0.000     0.001 .00000E+00 0.000E+00 0.000E+00 0.000E+00 0.000E+00 0.000E+00
BIGSUB    1        0    9.17227E+01    21.900     0.000    41.236    18.698   133.564     0.000     0.170     0.000    21.785     0.421     0.000     0.000     0.000     0.000     0.000     0.327     0.000     0.000 .00000E+00 0.000E+00 0.000E+00 0.000E+00 0.000E+00 0.000E+00
BIGSUB    2        0    9.22328E+01    21.900     0.000    41.373    18.381   134.943     0.000     0.177     0.000    26.498     0.291     0.001     0.000     0.000     0.000     0.000     0.241     0.000     0.000 .00000E+00 0.000E+00 0.000E+00 0.000E+00 0.000E+00 0.000E+00
BIGSUB    3        0    9.18344E+01    21.900     0.000    41.414    21.233   103.783     0.000     0.055     1.503     3.025     0.119     0.000     0.000     0.000     0.000     0.000     0.325     0.000     0.000 .00000E+00 0.000E+00 0.000E+00 0.000E+00 0.000E+00 0.000E+00
BIGSUB    1        0   10.17227E+01    74.000     0.000    24.610    19.208   179.845     0.513     3.488     0.000    23.124    16.859     0.015     0.002     0.000     0.000     0.001     2.978     0.003     0.000 .00000E+00 0.000E+00 0.000E+00 0.000E+00 0.000E+00 0.000E+00
BIGSUB    2        0   10.22328E+01    74.000     0.000    24.693    19.431   180.459     1.903     3.583     0.000    27.169    11.171     0.034     0.004     0.000     0.000     0.004     2.285     0.003     0.000 .00000E+00 0.000E+00 0.000E+00 0.000E+00 0.000E+00 0.000E+00
BIGSUB    3        0   10.18344E+01    74.000     0.000    24.717    20.630   149.963     0.517     2.097     1.351     7.370     9.354     0.004     0.001     0.000     0.000     0.001     3.014     0.003     0.000 .00000E+00 0.000E+00 0.000E+00 0.000E+00 0.000E+00 0.000E+00
BIGSUB    1        0   11.17227E+01   115.800     0.000    17.490    17.439   180.261    61.109    19.933     0.000    49.136    87.620     0.095     0.012     0.000     0.000     0.009    14.844     0.087     0.000 .00000E+00 0.000E+00 0.000E+00 0.000E+00 0.000E+00 0.000E+00
BIGSUB    2        0   11.22328E+01   115.800     0.000    17.527    17.437   180.320    65.561    19.973     0.000    49.588    56.573     0.214     0.026     0.000     0.000     0.022    11.486     0.067     0.000 .00000E+00 0.000E+00 0.000E+00 0.000E+00 0.000E+00 0.000E+00
BIGSUB    3        0   11.18344E+01   115.800     0.000    17.537    17.481   180.261    35.342    18.446     2.485    34.160    76.704     0.033     0.004     0.000     0.000     0.004    12.523     0.060     0.001 .00000E+00 0.000E+00 0.000E+00 0.000E+00 0.000E+00 0.000E+00
BIGSUB    1        0   12.17227E+01    77.200     0.000    17.266    16.682   179.784    36.651    14.026     0.000    44.540    54.512     0.060     0.007     0.000     0.000     0.006    11.311     0.060     0.000 .00000E+00 0.000E+00 0.000E+00 0.000E+00 0.000E+00 0.000E+00
BIGSUB    2        0   12.22328E+01    77.200     0.000    17.270    16.648   179.825    39.107    14.048     0.000    44.409    35.187     0.135     0.017     0.000     0.000     0.013     8.658     0.045     0.000 .00000E+00 0.000E+00 0.000E+00 0.000E+00 0.000E+00 0.000E+00
BIGSUB    3        0   12.18344E+01    77.200     0.000    17.271    17.047   179.776    36.351    14.021     7.052    32.834    51.437     0.022     0.003     0.000     0.000     0.002    10.968     0.063     0.002 .00000E+00 0.000E+00 0.000E+00 0.000E+00 0.000E+00 0.000E+00
BIGSUB    1        0 1982.17227E+01  1062.900     0.000   409.703   251.706   179.784   440.803   246.157     0.000   785.968   940.484    40.385     4.946     0.003     0.007     4.042   133.156     1.088     0.000 .00000E+00 0.000E+00 0.000E+00 0.000E+00 0.000E+00 0.000E+00
BIGSUB    2        0 1982.22328E+01  1062.900     0.000   411.059   251.085   179.825   470.918   246.896     0.000   769.048   607.744    51.583     6.318     0.003     0.011     5.137   101.910     0.819     0.000 .00000E+00 0.000E+00 0.000E+00 0.000E+00 0.000E+00 0.000E+00
BIGSUB    3        0 1982.18344E+01  1062.900     0.000   411.453   284.844   179.776   413.577   242.945   328.086   721.400   874.442    45.408     5.562     0.003     0.005     4.551   130.288     1.117     0.421 .00000E+00 0.000E+00 0.000E+00 0.000E+00 0.000E+00 0.000E+00
BIGSUB    1        0    1.17227E+01   152.700     0.000    17.032    17.032   181.485    74.863    38.363     0.000    81.443   124.774    26.401     3.233     0.000     0.002     2.547    18.594     0.082     0.000 .00000E+00 0.000E+00 0.000E+00 0.000E+00 0.000E+00 0.000E+00
BIGSUB    2        0    1.22328E+01   152.700     0.000    17.055    17.055   181.718    79.466    38.397     0.000    78.496    80.594    21.952     2.688     0.000     0.002     2.115    14.212     0.061     0.000 .00000E+00 0.000E+00 0.000E+00 0.000E+00 0.000E+00 0.000E+00
BIGSUB    3        0    1.18344E+01   152.700     0.000    17.062    17.062   181.486    74.820    38.388    26.074    84.077   117.737    26.473     3.242     0.000     0.001     2.553    18.577     0.091     0.010 .00000E+00 0.000E+00 0.000E+00 0.000E+00 0.000E+00 0.000E+00
BIGSUB    1        0    2.17227E+01   196.000     0.000    24.660    24.369   180.581    62.693    92.487     0.000   138.444   438.572     3.896     0.477     0.001     0.002     0.408    16.803     0.058     0.000 .00000E+00 0.000E+00 0.000E+00 0.000E+00 0.000E+00 0.000E+00
BIGSUB    2        0    2.22328E+01   196.000     0.000    24.721    24.429   180.699    66.788    92.577     0.000   134.882   282.815     7.563     0.926     0.001     0.003     0.757    12.840     0.043     0.000 .00000E+00 0.000E+00 0.000E+00 0.000E+00 0.000E+00 0.000E+00
BIGSUB    3        0    2.18344E+01   196.000     0.000    24.739    24.654   180.578    62.452    92.452    41.131   151.682   413.658     4.502     0.551     0.001     0.001     0.469    16.782     0.064     0.017 .00000E+00 0.000E+00 0.000E+00 0.000E+00 0.000E+00 0.000E+00
BIGSUB    1        0    3.17227E+01   255.900     0.000    36.016    35.961   182.551   101.771    87.114     0.000   154.754   319.804     0.383     0.047     0.001     0.001     0.042    26.587     0.069     0.000 .00000E+00 0.000E+00 0.000E+00 0.000E+00 0.000E+00 0.000E+00
BIGSUB    2        0    3.22328E+01   255.900     0.000    36.102    36.049   182.977   107.997    86.838     0.000   147.769   206.354     0.841     0.103     0.001     0.002     0.087    20.310     0.051     0.000 .00000E+00 0.000E+00 0.000E+00 0.000E+00 0.000E+00 0.000E+00
BIGSUB    3        0    3.18344E+01   255.900     0.000    36.128    36.111   182.552   101.633    87.419    60.316   176.245   301.783     0.141     0.017     0.001     0.000     0.020    26.573     0.074     0.025 .00000E+00 0.000E+00 0.000E+00 0.000E+00 0.000E+00 0.000E+00
BIGSUB    1        0    4.17227E+01   102.500     0.000    33.041    32.445   177.814    44.903    17.917     0.000    84.655    71.723     0.121     0.015     0.000     0.000     0.011    17.773     0.036     0.000 .00000E+00 0.000E+00 0.000E+00 0.000E+00 0.000E+00 0.000E+00
BIGSUB    2        0    4.22328E+01   102.500     0.000    33.173    32.575   177.872    48.054    18.349     0.000    80.087    46.271     0.257     0.031     0.000     0.001     0.024    13.586     0.027     0.000 .00000E+00 0.000E+00 0.000E+00 0.000E+00 0.000E+00 0.000E+00
BIGSUB    3        0    4.18344E+01   102.500     0.000    33.212    33.035   177.308    44.825    17.596    68.585   106.326    67.676     0.046     0.006     0.000     0.000     0.004    17.766     0.039     0.024 .00000E+00 0.000E+00 0.000E+00 0.000E+00 0.000E+00 0.000E+00
BIGSUB    1        0    5.17227E+01    19.800     0.000    45.560    34.096   163.094     0.000     0.095     0.000    53.686     0.360     0.000     0.000     0.000     0.000     0.000     2.534     0.004     0.000 .00000E+00 0.000E+00 0.000E+00 0.000E+00 0.000E+00 0.000E+00
BIGSUB    2        0    5.22328E+01    19.800     0.000    45.768    34.231   163.100     0.000     0.094     0.000    53.532     0.233     0.001     0.000     0.000     0.000     0.000     1.932     0.003     0.000 .00000E+00 0.000E+00 0.000E+00 0.000E+00 0.000E+00 0.000E+00
BIGSUB    3        0    5.18344E+01    19.800     0.000    45.829    41.076   155.613     0.000     0.091    54.053    59.207     0.327     0.000     0.000     0.000     0.000     0.000     2.531     0.005     0.011 .00000E+00 0.000E+00 0.000E+00 0.000E+00 0.000E+00 0.000E+00
BIGSUB    1        0    6.17227E+01    12.300     0.000    48.996    24.354   150.938     0.000     0.000     0.000    42.583     0.000     0.000     0.000     0.000     0.000     0.000     0.217     0.000     0.000 .00000E+00 0.000E+00 0.000E+00 0.000E+00 0.000E+00 0.000E+00
BIGSUB    2        0    6.22328E+01    12.300     0.000    49.226    23.937   151.389     0.000     0.000     0.000    44.880     0.000     0.000     0.000     0.000     0.000     0.000     0.162     0.000     0.000 .00000E+00 0.000E+00 0.000E+00 0.000E+00 0.000E+00 0.000E+00
BIGSUB    3        0    6.18344E+01    12.300     0.000    49.293    31.393   136.420     0.000     0.000    14.931    17.287     0.000     0.000     0.000     0.000     0.000     0.000     0.215     0.000     0.002 .00000E+00 0.000E+00 0.000E+00 0.000E+00 0.000E+00 0.000E+00
BIGSUB    1        0    7.17227E+01    11.000     0.000    49.647    21.734   140.162     0.000     0.000     0.000    35.059     0.000     0.000     0.000     0.000     0.000     0.000     0.040     0.000     0.000 .00000E+00 0.000E+00 0.000E+00 0.000E+00 0.000E+00 0.000E+00
BIGSUB    2        0    7.22328E+01    11.000     0.000    49.851    21.335   141.023     0.000     0.000     0.000    38.887     0.000     0.000     0.000     0.000     0.000     0.000     0.029     0.000     0.000 .00000E+00 0.000E+00 0.000E+00 0.000E+00 0.000E+00 0.000E+00
BIGSUB    3        0    7.18344E+01    11.000     0.000    49.911    26.985   120.394     0.000     0.000     4.643     6.485     0.000     0.000     0.000     0.000     0.000     0.000     0.039     0.000     0.001 .00000E+00 0.000E+00 0.000E+00 0.000E+00 0.000E+00 0.000E+00
BIGSUB    1        0    8.17227E+01    12.800     0.000    45.485    18.680   134.179     0.000     0.000     0.000    27.150     0.000     0.000     0.000     0.000     0.000     0.000     0.100     0.000     0.000 .00000E+00 0.000E+00 0.000E+00 0.000E+00 0.000E+00 0.000E+00
BIGSUB    2        0    8.22328E+01    12.800     0.000    45.668    18.539   135.210     0.000     0.000     0.000    31.629     0.000     0.000     0.000     0.000     0.000     0.000     0.072     0.000     0.000 .00000E+00 0.000E+00 0.000E+00 0.000E+00 0.000E+00 0.000E+00
BIGSUB    3        0    8.18344E+01    12.800     0.000    45.722    22.655   110.438     0.000     0.000     2.357     3.873     0.000     0.000     0.000     0.000     0.000     0.000     0.098     0.000     0.000 .00000E+00 0.000E+00 0.000E+00 0.000E+00 0.000E+00 0.000E+00
BIGSUB    1        0    9.17227E+01    30.900     0.000    38.532    20.496   143.396     0.000     0.155     0.000    20.840     0.569     0.000     0.000     0.000     0.000     0.000     0.684     0.000     0.000 .00000E+00 0.000E+00 0.000E+00 0.000E+00 0.000E+00 0.000E+00
BIGSUB    2        0    9.22328E+01    30.900     0.000    38.675    20.521   144.660     0.000     0.161     0.000    25.109     0.388     0.001     0.000     0.000     0.000     0.000     0.508     0.000     0.000 .00000E+00 0.000E+00 0.000E+00 0.000E+00 0.000E+00 0.000E+00
BIGSUB    3        0    9.18344E+01    30.900     0.000    38.716    23.418   116.833     0.000     0.056     1.686     3.493     0.178     0.000     0.000     0.000     0.000     0.000     0.685     0.000     0.000 .00000E+00 0.000E+00 0.000E+00 0.000E+00 0.000E+00 0.000E+00
BIGSUB    1        0   10.17227E+01    48.800     0.000    32.914    24.206   163.739     0.000     2.172     0.000    19.805     6.655     0.008     0.001     0.000     0.000     0.001     1.957     0.000     0.000 .00000E+00 0.000E+00 0.000E+00 0.000E+00 0.000E+00 0.000E+00
BIGSUB    2        0   10.22328E+01    48.800     0.000    32.978    24.614   165.068     0.000     2.223     0.000    23.672     4.401     0.017     0.002     0.000     0.000     0.002     1.461     0.000     0.000 .00000E+00 0.000E+00 0.000E+00 0.000E+00 0.000E+00 0.000E+00
BIGSUB    3        0   10.18344E+01    48.800     0.000    32.997    26.257   135.977     0.000     1.276     0.881     4.993     3.634     0.002     0.000     0.000     0.000     0.000     1.988     0.000     0.000 .00000E+00 0.000E+00 0.000E+00 0.000E+00 0.000E+00 0.000E+00
BIGSUB    1        0   11.17227E+01    56.000     0.000    23.556    19.107   179.768     7.238     8.968     0.000    23.129    25.327     0.034     0.004     0.000     0.000     0.003     2.692     0.008     0.000 .00000E+00 0.000E+00 0.000E+00 0.000E+00 0.000E+00 0.000E+00
BIGSUB    2        0   11.22328E+01    56.000     0.000    23.582    19.355   179.834     9.127     9.049     0.000    26.352    16.507     0.076     0.009     0.000     0.000     0.007     2.104     0.007     0.000 .00000E+00 0.000E+00 0.000E+00 0.000E+00 0.000E+00 0.000E+00
BIGSUB    3        0   11.18344E+01    56.000     0.000    23.589    20.140   158.279     2.387     6.984     0.559    10.703    18.146     0.011     0.001     0.000     0.000     0.001     2.531     0.006     0.000 .00000E+00 0.000E+00 0.000E+00 0.000E+00 0.000E+00 0.000E+00
BIGSUB    1        0   12.17227E+01   212.000     0.000    14.288    14.228   180.650   114.059    51.823     0.000    90.160   148.710     0.221     0.027     0.001     0.001     0.021    24.522     0.121     0.000 .00000E+00 0.000E+00 0.000E+00 0.000E+00 0.000E+00 0.000E+00
BIGSUB    2        0   12.22328E+01   212.000     0.000    14.291    14.193   180.853   121.136    51.922     0.000    87.181    96.014     0.476     0.058     0.001     0.001     0.045    18.797     0.093     0.000 .00000E+00 0.000E+00 0.000E+00 0.000E+00 0.000E+00 0.000E+00
BIGSUB    3        0   12.18344E+01   212.000     0.000    14.292    14.222   180.650    95.651    50.656     4.172    77.910   136.690     0.082     0.010     0.001     0.000     0.008    22.457     0.106     0.001 .00000E+00 0.000E+00 0.000E+00 0.000E+00 0.000E+00 0.000E+00
BIGSUB    1        0 1983.17227E+01  1110.700     0.000   409.729   286.708   180.650   405.526   299.093     0.000   771.709  1136.494    31.065     3.804     0.004     0.005     3.033   112.503     0.380     0.000 .00000E+00 0.000E+00 0.000E+00 0.000E+00 0.000E+00 0.000E+00
BIGSUB    2        0 1983.22328E+01  1110.700     0.000   411.092   286.834   180.853   432.568   299.611     0.000   772.477   733.577    31.184     3.818     0.004     0.008     3.036    86.013     0.286     0.000 .00000E+00 0.000E+00 0.000E+00 0.000E+00 0.000E+00 0.000E+00
BIGSUB    3        0 1983.18344E+01  1110.700     0.000   411.488   317.008   180.650   381.769   294.918   279.390   702.281  1059.828    31.258     3.827     0.003     0.003     3.055   110.243     0.385     0.091 .00000E+00 0.000E+00 0.000E+00 0.000E+00 0.000E+00 0.000E+00
BIGSUB    1        0    1.17227E+01   211.400     0.000    14.115    14.115   181.845   110.679    55.242     0.000   110.940   193.346    28.348     3.470     0.000     0.002     2.755    28.877     0.095     0.000 .00000E+00 0.000E+00 0.000E+00 0.000E+00 0.000E+00 0.000E+00
BIGSUB    2        0    1.22328E+01   211.400     0.000    14.132    14.132   182.176   117.524    55.315     0.000   104.449   124.856    25.046     3.066     0.000     0.002     2.428    22.072     0.072     0.000 .00000E+00 0.000E+00 0.000E+00 0.000E+00 0.000E+00 0.000E+00
BIGSUB    3        0    1.18344E+01   211.400     0.000    14.137    14.137   181.844   110.645    55.284    37.491   122.732   182.455    28.819     3.528     0.000     0.001     2.800    28.794     0.103     0.016 .00000E+00 0.000E+00 0.000E+00 0.000E+00 0.000E+00 0.000E+00
BIGSUB    1        0    2.17227E+01   434.000     0.000    21.638    21.638   182.024   176.888   187.267     0.000   273.531   507.780     2.224     0.272     0.000     0.002     0.232    43.976     0.081     0.000 .00000E+00 0.000E+00 0.000E+00 0.000E+00 0.000E+00 0.000E+00
BIGSUB    2        0    2.22328E+01   434.000     0.000    21.695    21.695   182.431   187.658   187.603     0.000   261.513   327.983     5.189     0.636     0.000     0.004     0.520    33.571     0.060     0.000 .00000E+00 0.000E+00 0.000E+00 0.000E+00 0.000E+00 0.000E+00
BIGSUB    3        0    2.18344E+01   434.000     0.000    21.712    21.712   182.020   176.813   187.353    75.482   308.766   479.191     2.152     0.264     0.000     0.001     0.230    43.983     0.086     0.036 .00000E+00 0.000E+00 0.000E+00 0.000E+00 0.000E+00 0.000E+00
BIGSUB    1        0    3.17227E+01   258.500     0.000    31.952    31.880   182.506   119.796    73.430     0.000   179.705   172.530     0.328     0.040     0.000     0.001     0.031    37.961     0.043     0.000 .00000E+00 0.000E+00 0.000E+00 0.000E+00 0.000E+00 0.000E+00
BIGSUB    2        0    3.22328E+01   258.500     0.000    32.080    32.009   182.942   127.264    73.596     0.000   166.915   111.427     0.671     0.084     0.000     0.001     0.064    28.999     0.032     0.000 .00000E+00 0.000E+00 0.000E+00 0.000E+00 0.000E+00 0.000E+00
BIGSUB    3        0    3.18344E+01   258.500     0.000    32.118    32.096   182.506   119.599    73.388   116.765   231.381   162.860     0.128     0.016     0.000     0.000     0.012    37.952     0.045     0.045 .00000E+00 0.000E+00 0.000E+00 0.000E+00 0.000E+00 0.000E+00
BIGSUB    1        0    4.17227E+01    79.600     0.000    42.399    40.162   176.759    28.914     7.924     0.000   101.327    27.436     0.045     0.005     0.000     0.000     0.004    15.916     0.016     0.000 .00000E+00 0.000E+00 0.000E+00 0.000E+00 0.000E+00 0.000E+00
BIGSUB    2        0    4.22328E+01    79.600     0.000    42.532    40.287   176.776    31.195     8.108     0.000    94.817    17.714     0.091     0.011     0.000     0.000     0.009    12.173     0.012     0.000 .00000E+00 0.000E+00 0.000E+00 0.000E+00 0.000E+00 0.000E+00
BIGSUB    3        0    4.18344E+01    79.600     0.000    42.571    41.917   176.012    28.050     7.771   104.812   132.201    25.841     0.017     0.002     0.000     0.000     0.002    15.815     0.016     0.025 .00000E+00 0.000E+00 0.000E+00 0.000E+00 0.000E+00 0.000E+00
BIGSUB    1        0    5.17227E+01    41.000     0.000    50.941    42.018   169.856     2.358     1.695     0.000    80.485     4.845     0.004     0.001     0.000     0.000     0.000     3.260     0.003     0.000 .00000E+00 0.000E+00 0.000E+00 0.000E+00 0.000E+00 0.000E+00
BIGSUB    2        0    5.22328E+01    41.000     0.000    51.145    42.169   169.852     2.661     1.697     0.000    79.961     3.126     0.009     0.001     0.000     0.000     0.001     2.491     0.002     0.000 .00000E+00 0.000E+00 0.000E+00 0.000E+00 0.000E+00 0.000E+00
BIGSUB    3        0    5.18344E+01    41.000     0.000    51.205    48.096   165.095     0.658     1.604    70.355    78.702     4.312     0.002     0.000     0.000     0.000     0.000     2.975     0.002     0.009 .00000E+00 0.000E+00 0.000E+00 0.000E+00 0.000E+00 0.000E+00
BIGSUB    1        0    6.17227E+01    23.600     0.000    53.037    36.034   157.091     0.000     0.000     0.000    61.620     0.000     0.000     0.000     0.000     0.000     0.000     0.496     0.000     0.000 .00000E+00 0.000E+00 0.000E+00 0.000E+00 0.000E+00 0.000E+00
BIGSUB    2        0    6.22328E+01    23.600     0.000    53.266    36.132   157.073     0.000     0.000     0.000    64.911     0.000     0.000     0.000     0.000     0.000     0.000     0.374     0.000     0.000 .00000E+00 0.000E+00 0.000E+00 0.000E+00 0.000E+00 0.000E+00
BIGSUB    3        0    6.18344E+01    23.600     0.000    53.332    43.861   144.506     0.000     0.000    25.601    29.162     0.000     0.000     0.000     0.000     0.000     0.000     0.467     0.000     0.003 .00000E+00 0.000E+00 0.000E+00 0.000E+00 0.000E+00 0.000E+00
BIGSUB    1        0    7.17227E+01     6.900     0.000    54.245    19.169   144.821     0.000     0.000     0.000    50.078     0.000     0.000     0.000     0.000     0.000     0.000     0.074     0.000     0.000 .00000E+00 0.000E+00 0.000E+00 0.000E+00 0.000E+00 0.000E+00
BIGSUB    2        0    7.22328E+01     6.900     0.000    54.455    19.203   144.769     0.000     0.000     0.000    55.684     0.000     0.000     0.000     0.000     0.000     0.000     0.056     0.000     0.000 .00000E+00 0.000E+00 0.000E+00 0.000E+00 0.000E+00 0.000E+00
BIGSUB    3        0    7.18344E+01     6.900     0.000    54.516    25.900   125.505     0.000     0.000     7.211     9.857     0.000     0.000     0.000     0.000     0.000     0.000     0.073     0.000     0.001 .00000E+00 0.000E+00 0.000E+00 0.000E+00 0.000E+00 0.000E+00
BIGSUB    1        0    8.17227E+01    13.300     0.000    45.388    18.581   139.328     0.000     0.000     0.000    38.608     0.000     0.000     0.000     0.000     0.000     0.000     0.171     0.000     0.000 .00000E+00 0.000E+00 0.000E+00 0.000E+00 0.000E+00 0.000E+00
BIGSUB    2        0    8.22328E+01    13.300     0.000    45.573    18.335   139.577     0.000     0.000     0.000    45.118     0.000     0.000     0.000     0.000     0.000     0.000     0.127     0.000     0.000 .00000E+00 0.000E+00 0.000E+00 0.000E+00 0.000E+00 0.000E+00
BIGSUB    3        0    8.18344E+01    13.300     0.000    45.627    22.744   115.852     0.000     0.000     4.280     6.461     0.000     0.000     0.000     0.000     0.000     0.000     0.169     0.000     0.000 .00000E+00 0.000E+00 0.000E+00 0.000E+00 0.000E+00 0.000E+00
BIGSUB    1        0    9.17227E+01    15.700     0.000    36.765    16.724   137.935     0.000     0.000     0.000    28.651     0.000     0.000     0.000     0.000     0.000     0.000     0.297     0.000     0.000 .00000E+00 0.000E+00 0.000E+00 0.000E+00 0.000E+00 0.000E+00
BIGSUB    2        0    9.22328E+01    15.700     0.000    36.857    16.402   138.601     0.000     0.000     0.000    34.987     0.000     0.000     0.000     0.000     0.000     0.000     0.220     0.000     0.000 .00000E+00 0.000E+00 0.000E+00 0.000E+00 0.000E+00 0.000E+00
BIGSUB    3        0    9.18344E+01    15.700     0.000    36.883    19.419   111.767     0.000     0.000     2.084     3.888     0.000     0.000     0.000     0.000     0.000     0.000     0.294     0.000     0.000 .00000E+00 0.000E+00 0.000E+00 0.000E+00 0.000E+00 0.000E+00
BIGSUB    1        0   10.17227E+01    79.100     0.000    30.912    24.270   179.471     1.607     7.112     0.000    32.716    24.209     0.026     0.003     0.000     0.000     0.002     3.399     0.005     0.000 .00000E+00 0.000E+00 0.000E+00 0.000E+00 0.000E+00 0.000E+00
BIGSUB    2        0   10.22328E+01    79.100     0.000    30.986    24.281   179.495     3.117     7.211     0.000    38.259    15.824     0.055     0.007     0.000     0.000     0.005     2.638     0.004     0.000 .00000E+00 0.000E+00 0.000E+00 0.000E+00 0.000E+00 0.000E+00
BIGSUB    3        0   10.18344E+01    79.100     0.000    31.008    25.822   154.982     0.726     4.792     2.390    11.786    15.918     0.008     0.001     0.000     0.000     0.001     3.404     0.004     0.000 .00000E+00 0.000E+00 0.000E+00 0.000E+00 0.000E+00 0.000E+00
BIGSUB    1        0   11.17227E+01   122.500     0.000    14.895    14.856   181.641    57.830    31.162     0.000    58.091   121.566     0.098     0.012     0.001     0.000     0.009     9.756     0.042     0.000 .00000E+00 0.000E+00 0.000E+00 0.000E+00 0.000E+00 0.000E+00
BIGSUB    2        0   11.22328E+01   122.500     0.000    14.923    14.821   182.002    61.305    31.052     0.000    61.042    78.501     0.214     0.027     0.001     0.000     0.020     7.502     0.032     0.000 .00000E+00 0.000E+00 0.000E+00 0.000E+00 0.000E+00 0.000E+00
BIGSUB    3        0   11.18344E+01   122.500     0.000    14.931    14.877   181.638    36.792    30.041     2.088    41.171   109.462     0.035     0.004     0.000     0.000     0.003     8.142     0.030     0.000 .00000E+00 0.000E+00 0.000E+00 0.000E+00 0.000E+00 0.000E+00
BIGSUB    1        0   12.17227E+01   185.000     0.000    13.514    13.434   181.962    93.111    53.011     0.000   102.268   155.255     0.216     0.026     0.000     0.000     0.020    25.357     0.093     0.000 .00000E+00 0.000E+00 0.000E+00 0.000E+00 0.000E+00 0.000E+00
BIGSUB    2        0   12.22328E+01   185.000     0.000    13.513    13.411   182.353    98.953    53.205     0.000    99.744   100.235     0.446     0.055     0.000     0.001     0.041    19.383     0.071     0.000 .00000E+00 0.000E+00 0.000E+00 0.000E+00 0.000E+00 0.000E+00
BIGSUB    3        0   12.18344E+01   185.000     0.000    13.513    13.426   181.961    93.101    52.928    17.302    96.105   146.542     0.083     0.010     0.000     0.000     0.008    24.787     0.095     0.005 .00000E+00 0.000E+00 0.000E+00 0.000E+00 0.000E+00 0.000E+00
BIGSUB    1        0 1984.17227E+01  1470.600     0.000   409.801   292.881   181.962   591.184   416.844     0.000  1118.019  1206.966    31.288     3.830     0.003     0.006     3.054   169.540     0.378     0.000 .00000E+00 0.000E+00 0.000E+00 0.000E+00 0.000E+00 0.000E+00
BIGSUB    2        0 1984.22328E+01  1470.600     0.000   411.158   292.879   182.353   629.677   417.786     0.000  1107.400   779.665    31.721     3.887     0.003     0.009     3.087   129.604     0.286     0.000 .00000E+00 0.000E+00 0.000E+00 0.000E+00 0.000E+00 0.000E+00
BIGSUB    3        0 1984.18344E+01  1470.600     0.000   411.553   324.006   181.961   566.383   413.161   465.862  1072.212  1126.581    31.244     3.826     0.002     0.004     3.055   166.855     0.382     0.140 .00000E+00 0.000E+00 0.000E+00 0.000E+00 0.000E+00 0.000E+00
BIGSUB    1        0    1.17227E+01   162.300     0.000    13.058    13.058   182.430    91.950    31.792     0.000    91.903    98.513    22.490     2.752     0.000     0.001     2.178    24.773     0.064     0.000 .00000E+00 0.000E+00 0.000E+00 0.000E+00 0.000E+00 0.000E+00
BIGSUB    2        0    1.22328E+01   162.300     0.000    13.076    13.076   182.877    97.697    31.809     0.000    87.162    63.623    18.155     2.222     0.000     0.001     1.755    18.936     0.048     0.000 .00000E+00 0.000E+00 0.000E+00 0.000E+00 0.000E+00 0.000E+00
BIGSUB    3        0    1.18344E+01   162.300     0.000    13.081    13.081   182.429    91.915    31.827    50.021   108.234    92.959    22.420     2.744     0.000     0.001     2.171    24.767     0.068     0.016 .00000E+00 0.000E+00 0.000E+00 0.000E+00 0.000E+00 0.000E+00
BIGSUB    1        0    2.17227E+01   217.300     0.000    16.282    16.282   181.231   105.710    68.075     0.000   136.824   229.503     6.981     0.854     0.000     0.001     0.703    26.685     0.051     0.000 .00000E+00 0.000E+00 0.000E+00 0.000E+00 0.000E+00 0.000E+00
BIGSUB    2        0    2.22328E+01   217.300     0.000    16.331    16.331   181.481   112.439    68.300     0.000   130.542   148.139     9.370     1.147     0.000     0.002     0.928    20.386     0.038     0.000 .00000E+00 0.000E+00 0.000E+00 0.000E+00 0.000E+00 0.000E+00
BIGSUB    3        0    2.18344E+01   217.300     0.000    16.345    16.345   181.226   105.641    68.024    62.665   159.373   216.643     7.814     0.956     0.000     0.001     0.784    26.694     0.053     0.020 .00000E+00 0.000E+00 0.000E+00 0.000E+00 0.000E+00 0.000E+00
BIGSUB    1        0    3.17227E+01   192.100     0.000    34.423    32.835   182.813    86.797    46.159     0.000   129.806   118.840     0.262     0.032     0.000     0.000     0.030    25.888     0.038     0.000 .00000E+00 0.000E+00 0.000E+00 0.000E+00 0.000E+00 0.000E+00
BIGSUB    2        0    3.22328E+01   192.100     0.000    34.531    32.947   183.313    92.149    46.038     0.000   122.667    76.708     0.949     0.116     0.000     0.001     0.098    19.782     0.029     0.000 .00000E+00 0.000E+00 0.000E+00 0.000E+00 0.000E+00 0.000E+00
BIGSUB    3        0    3.18344E+01   192.100     0.000    34.563    34.071   182.812    85.744    46.263    82.442   157.274   112.032     0.267     0.033     0.000     0.000     0.032    25.767     0.039     0.023 .00000E+00 0.000E+00 0.000E+00 0.000E+00 0.000E+00 0.000E+00
BIGSUB    1        0    4.17227E+01    68.200     0.000    34.829    34.614   179.248    26.701     3.031     0.000    79.655     9.192     0.035     0.004     0.000     0.000     0.003    14.430     0.019     0.000 .00000E+00 0.000E+00 0.000E+00 0.000E+00 0.000E+00 0.000E+00
BIGSUB    2        0    4.22328E+01    68.200     0.000    34.960    34.743   179.310    28.817     3.278     0.000    76.131     5.940     0.079     0.010     0.000     0.000     0.008    11.036     0.015     0.000 .00000E+00 0.000E+00 0.000E+00 0.000E+00 0.000E+00 0.000E+00
BIGSUB    3        0    4.18344E+01    68.200     0.000    34.999    34.934   179.053    26.584     2.824    76.732    97.026     8.673     0.017     0.002     0.000     0.000     0.002    14.400     0.020     0.016 .00000E+00 0.000E+00 0.000E+00 0.000E+00 0.000E+00 0.000E+00
BIGSUB    1        0    5.17227E+01    23.500     0.000    47.410    34.597   167.445     0.000     0.139     0.000    62.372     0.394     0.000     0.000     0.000     0.000     0.000     1.971     0.002     0.000 .00000E+00 0.000E+00 0.000E+00 0.000E+00 0.000E+00 0.000E+00
BIGSUB    2        0    5.22328E+01    23.500     0.000    47.619    34.747   167.500     0.000     0.140     0.000    63.571     0.254     0.001     0.000     0.000     0.000     0.000     1.499     0.001     0.000 .00000E+00 0.000E+00 0.000E+00 0.000E+00 0.000E+00 0.000E+00
BIGSUB    3        0    5.18344E+01    23.500     0.000    47.680    41.937   159.938     0.000     0.112    54.052    59.154     0.296     0.000     0.000     0.000     0.000     0.000     1.967     0.002     0.006 .00000E+00 0.000E+00 0.000E+00 0.000E+00 0.000E+00 0.000E+00
BIGSUB    1        0    6.17227E+01    15.300     0.000    45.518    26.812   155.702     0.000     0.000     0.000    48.906     0.000     0.000     0.000     0.000     0.000     0.000     0.392     0.000     0.000 .00000E+00 0.000E+00 0.000E+00 0.000E+00 0.000E+00 0.000E+00
BIGSUB    2        0    6.22328E+01    15.300     0.000    45.731    26.929   155.699     0.000     0.000     0.000    52.544     0.000     0.000     0.000     0.000     0.000     0.000     0.293     0.000     0.000 .00000E+00 0.000E+00 0.000E+00 0.000E+00 0.000E+00 0.000E+00
BIGSUB    3        0    6.18344E+01    15.300     0.000    45.794    33.519   141.490     0.000     0.000    14.458    17.325     0.000     0.000     0.000     0.000     0.000     0.000     0.389     0.000     0.001 .00000E+00 0.000E+00 0.000E+00 0.000E+00 0.000E+00 0.000E+00
BIGSUB    1        0    7.17227E+01     7.500     0.000    44.489    18.216   144.985     0.000     0.000     0.000    39.634     0.000     0.000     0.000     0.000     0.000     0.000     0.049     0.000     0.000 .00000E+00 0.000E+00 0.000E+00 0.000E+00 0.000E+00 0.000E+00
BIGSUB    2        0    7.22328E+01     7.500     0.000    44.685    18.257   144.943     0.000     0.000     0.000    44.830     0.000     0.000     0.000     0.000     0.000     0.000     0.036     0.000     0.000 .00000E+00 0.000E+00 0.000E+00 0.000E+00 0.000E+00 0.000E+00
BIGSUB    3        0    7.18344E+01     7.500     0.000    44.742    23.470   125.520     0.000     0.000     5.755     7.860     0.000     0.000     0.000     0.000     0.000     0.000     0.048     0.000     0.000 .00000E+00 0.000E+00 0.000E+00 0.000E+00 0.000E+00 0.000E+00
BIGSUB    1        0    8.17227E+01    13.100     0.000    50.408    17.387   140.400     0.000     0.036     0.000    30.610     0.101     0.000     0.000     0.000     0.000     0.000     0.188     0.000     0.000 .00000E+00 0.000E+00 0.000E+00 0.000E+00 0.000E+00 0.000E+00
BIGSUB    2        0    8.22328E+01    13.100     0.000    50.605    17.157   140.655     0.000     0.036     0.000    36.275     0.065     0.000     0.000     0.000     0.000     0.000     0.140     0.000     0.000 .00000E+00 0.000E+00 0.000E+00 0.000E+00 0.000E+00 0.000E+00
BIGSUB    3        0    8.18344E+01    13.100     0.000    50.663    21.919   116.428     0.000     0.010     2.651     4.456     0.025     0.000     0.000     0.000     0.000     0.000     0.188     0.000     0.000 .00000E+00 0.000E+00 0.000E+00 0.000E+00 0.000E+00 0.000E+00
BIGSUB    1        0    9.17227E+01    28.200     0.000    42.310    23.013   144.705     0.000     0.009     0.000    23.058     0.022     0.000     0.000     0.000     0.000     0.000     0.654     0.000     0.000 .00000E+00 0.000E+00 0.000E+00 0.000E+00 0.000E+00 0.000E+00
BIGSUB    2        0    9.22328E+01    28.200     0.000    42.460    22.723   145.476     0.000     0.009     0.000    28.317     0.016     0.000     0.000     0.000     0.000     0.000     0.484     0.000     0.000 .00000E+00 0.000E+00 0.000E+00 0.000E+00 0.000E+00 0.000E+00
BIGSUB    3        0    9.18344E+01    28.200     0.000    42.504    26.008   117.751     0.000     0.003     1.446     3.300     0.007     0.000     0.000     0.000     0.000     0.000     0.648     0.000     0.000 .00000E+00 0.000E+00 0.000E+00 0.000E+00 0.000E+00 0.000E+00
BIGSUB    1        0   10.17227E+01    36.600     0.000    34.861    18.412   157.760     0.000     3.650     0.000    22.240    18.442     0.011     0.001     0.001     0.000     0.001     1.067     0.000     0.000 .00000E+00 0.000E+00 0.000E+00 0.000E+00 0.000E+00 0.000E+00
BIGSUB    2        0   10.22328E+01    36.600     0.000    34.939    18.423   158.845     0.000     3.644     0.000    27.119    12.016     0.043     0.005     0.001     0.000     0.005     0.795     0.000     0.000 .00000E+00 0.000E+00 0.000E+00 0.000E+00 0.000E+00 0.000E+00
BIGSUB    3        0   10.18344E+01    36.600     0.000    34.962    20.638   129.513     0.000     2.709     1.079     5.816    12.238     0.007     0.001     0.001     0.000     0.001     1.073     0.000     0.000 .00000E+00 0.000E+00 0.000E+00 0.000E+00 0.000E+00 0.000E+00
BIGSUB    1        0   11.17227E+01    60.700     0.000    23.734    20.184   180.084     2.128    12.420     0.000    28.652    41.121     0.049     0.006     0.001     0.000     0.005     3.399     0.008     0.000 .00000E+00 0.000E+00 0.000E+00 0.000E+00 0.000E+00 0.000E+00
BIGSUB    2        0   11.22328E+01    60.700     0.000    23.749    20.357   180.157     3.616    12.569     0.000    32.486    26.765     0.143     0.018     0.001     0.000     0.014     2.671     0.007     0.000 .00000E+00 0.000E+00 0.000E+00 0.000E+00 0.000E+00 0.000E+00
BIGSUB    3        0   11.18344E+01    60.700     0.000    23.753    21.635   154.475     0.860     9.529     0.934    14.666    29.073     0.025     0.003     0.001     0.000     0.003     3.495     0.007     0.000 .00000E+00 0.000E+00 0.000E+00 0.000E+00 0.000E+00 0.000E+00
BIGSUB    1        0   12.17227E+01   162.600     0.000    15.964    15.885   182.516    81.759    39.625     0.000    68.109    81.519     0.102     0.013     0.001     0.000     0.010    15.948     0.077     0.000 .00000E+00 0.000E+00 0.000E+00 0.000E+00 0.000E+00 0.000E+00
BIGSUB    2        0   12.22328E+01   162.600     0.000    15.966    15.856   182.966    86.702    39.524     0.000    67.883    52.584     0.274     0.034     0.001     0.001     0.027    12.211     0.059     0.000 .00000E+00 0.000E+00 0.000E+00 0.000E+00 0.000E+00 0.000E+00
BIGSUB    3        0   12.18344E+01   162.600     0.000    15.967    15.887   182.522    59.770    38.414     2.389    55.279    73.502     0.052     0.006     0.001     0.000     0.006    13.875     0.061     0.000 .00000E+00 0.000E+00 0.000E+00 0.000E+00 0.000E+00 0.000E+00
BIGSUB    1        0 1985.17227E+01   987.400     0.000   403.285   271.295   182.516   395.046   204.936     0.000   761.768   597.647    29.931     3.663     0.004     0.003     2.931   115.445     0.260     0.000 .00000E+00 0.000E+00 0.000E+00 0.000E+00 0.000E+00 0.000E+00
BIGSUB    2        0 1985.22328E+01   987.400     0.000   404.655   271.545   182.966   421.419   205.348     0.000   769.527   386.110    29.015     3.552     0.004     0.004     2.834    88.269     0.198     0.000 .00000E+00 0.000E+00 0.000E+00 0.000E+00 0.000E+00 0.000E+00
BIGSUB    3        0 1985.18344E+01   987.400     0.000   405.053   303.446   182.522   370.514   199.714   354.623   689.761   545.447    30.602     3.746     0.003     0.002     2.998   113.309     0.251     0.084 .00000E+00 0.000E+00 0.000E+00 0.000E+00 0.000E+00 0.000E+00
BIGSUB    1        0    1.17227E+01   296.100     0.000    14.584    14.584   181.568   147.934    94.744     0.000   152.974   297.452    29.265     3.581     0.000     0.002     2.857    34.910     0.115     0.000 .00000E+00 0.000E+00 0.000E+00 0.000E+00 0.000E+00 0.000E+00
BIGSUB    2        0    1.22328E+01   296.100     0.000    14.610    14.610   181.898   157.183    95.023     0.000   146.142   192.024    27.356     3.347     0.000     0.003     2.663    26.666     0.087     0.000 .00000E+00 0.000E+00 0.000E+00 0.000E+00 0.000E+00 0.000E+00
BIGSUB    3        0    1.18344E+01   296.100     0.000    14.618    14.618   181.562   147.892    94.750    25.504   155.967   280.768    30.018     3.673     0.000     0.002     2.930    34.708     0.122     0.010 .00000E+00 0.000E+00 0.000E+00 0.000E+00 0.000E+00 0.000E+00
BIGSUB    1        0    2.17227E+01   312.300     0.000    20.015    20.015   182.813   131.050   124.134     0.000   199.496   453.084     0.664     0.082     0.000     0.001     0.075    36.266     0.068     0.000 .00000E+00 0.000E+00 0.000E+00 0.000E+00 0.000E+00 0.000E+00
BIGSUB    2        0    2.22328E+01   312.300     0.000    20.078    20.078   183.322   139.032   124.235     0.000   189.435   292.446     1.941     0.237     0.000     0.002     0.201    27.701     0.051     0.000 .00000E+00 0.000E+00 0.000E+00 0.000E+00 0.000E+00 0.000E+00
BIGSUB    3        0    2.18344E+01   312.300     0.000    20.097    20.097   182.811   130.964   124.211    70.697   232.969   427.625     0.487     0.060     0.000     0.001     0.061    36.269     0.073     0.033 .00000E+00 0.000E+00 0.000E+00 0.000E+00 0.000E+00 0.000E+00
BIGSUB    1        0    3.17227E+01   182.800     0.000    31.817    31.460   176.827    99.369    31.325     0.000   126.350    73.024     0.132     0.017     0.000     0.000     0.013    32.759     0.041     0.000 .00000E+00 0.000E+00 0.000E+00 0.000E+00 0.000E+00 0.000E+00
BIGSUB    2        0    3.22328E+01   182.800     0.000    31.913    31.557   176.994   105.885    31.634     0.000   115.730    47.164     0.261     0.032     0.000     0.000     0.025    25.036     0.031     0.000 .00000E+00 0.000E+00 0.000E+00 0.000E+00 0.000E+00 0.000E+00
BIGSUB    3        0    3.18344E+01   182.800     0.000    31.941    31.837   176.453    99.352    31.106   103.253   170.092    68.935     0.054     0.007     0.000     0.000     0.005    32.763     0.043     0.037 .00000E+00 0.000E+00 0.000E+00 0.000E+00 0.000E+00 0.000E+00
BIGSUB    1        0    4.17227E+01   117.500     0.000    33.594    33.142   182.508    43.213    22.104     0.000   107.514    88.873     0.056     0.007     0.000     0.000     0.005    15.449     0.017     0.000 .00000E+00 0.000E+00 0.000E+00 0.000E+00 0.000E+00 0.000E+00
BIGSUB    2        0    4.22328E+01   117.500     0.000    33.716    33.264   182.914    45.914    21.886     0.000   101.354    57.345     0.123     0.015     0.000     0.000     0.012    11.810     0.013     0.000 .00000E+00 0.000E+00 0.000E+00 0.000E+00 0.000E+00 0.000E+00
BIGSUB    3        0    4.18344E+01   117.500     0.000    33.751    33.613   182.512    42.502    22.277    93.157   134.203    83.821     0.021     0.003     0.000     0.000     0.002    15.351     0.018     0.021 .00000E+00 0.000E+00 0.000E+00 0.000E+00 0.000E+00 0.000E+00
BIGSUB    1        0    5.17227E+01    35.300     0.000    55.390    38.948   167.631     8.120     0.954     0.000    76.487     0.907     0.022     0.003     0.000     0.000     0.002     5.778     0.007     0.000 .00000E+00 0.000E+00 0.000E+00 0.000E+00 0.000E+00 0.000E+00
BIGSUB    2        0    5.22328E+01    35.300     0.000    55.608    39.079   167.698     8.900     1.217     0.000    75.620     0.589     0.045     0.005     0.000     0.000     0.004     4.416     0.006     0.000 .00000E+00 0.000E+00 0.000E+00 0.000E+00 0.000E+00 0.000E+00
BIGSUB    3        0    5.18344E+01    35.300     0.000    55.671    47.819   158.799     8.103     0.734    68.191    78.164     0.803     0.009     0.001     0.000     0.000     0.001     5.767     0.008     0.010 .00000E+00 0.000E+00 0.000E+00 0.000E+00 0.000E+00 0.000E+00
BIGSUB    1        0    6.17227E+01    10.100     0.000    61.684    27.505   150.169     0.000     0.000     0.000    58.130     0.000     0.000     0.000     0.000     0.000     0.000     0.565     0.000     0.000 .00000E+00 0.000E+00 0.000E+00 0.000E+00 0.000E+00 0.000E+00
BIGSUB    2        0    6.22328E+01    10.100     0.000    61.952    27.612   150.144     0.000     0.001     0.000    60.982     0.000     0.000     0.000     0.000     0.000     0.000     0.426     0.000     0.000 .00000E+00 0.000E+00 0.000E+00 0.000E+00 0.000E+00 0.000E+00
BIGSUB    3        0    6.18344E+01    10.100     0.000    62.029    35.986   132.857     0.000     0.000    27.508    30.988     0.000     0.000     0.000     0.000     0.000     0.000     0.563     0.000     0.003 .00000E+00 0.000E+00 0.000E+00 0.000E+00 0.000E+00 0.000E+00
BIGSUB    1        0    7.17227E+01    16.800     0.000    54.340    24.595   142.155     0.000     0.000     0.000    47.657     0.000     0.000     0.000     0.000     0.000     0.000     0.181     0.000     0.000 .00000E+00 0.000E+00 0.000E+00 0.000E+00 0.000E+00 0.000E+00
BIGSUB    2        0    7.22328E+01    16.800     0.000    54.569    24.650   142.131     0.000     0.000     0.000    52.686     0.000     0.000     0.000     0.000     0.000     0.000     0.136     0.000     0.000 .00000E+00 0.000E+00 0.000E+00 0.000E+00 0.000E+00 0.000E+00
BIGSUB    3        0    7.18344E+01    16.800     0.000    54.635    30.186   119.253     0.000     0.000     7.016     9.646     0.000     0.000     0.000     0.000     0.000     0.000     0.180     0.000     0.001 .00000E+00 0.000E+00 0.000E+00 0.000E+00 0.000E+00 0.000E+00
BIGSUB    1        0    8.17227E+01    23.100     0.000    56.757    23.227   139.430     0.000     1.991     0.000    39.135     7.729     0.005     0.001     0.001     0.000     0.000     0.510     0.000     0.000 .00000E+00 0.000E+00 0.000E+00 0.000E+00 0.000E+00 0.000E+00
BIGSUB    2        0    8.22328E+01    23.100     0.000    56.950    22.579   140.201     0.000     2.001     0.000    45.032     5.016     0.011     0.001     0.002     0.000     0.001     0.379     0.000     0.000 .00000E+00 0.000E+00 0.000E+00 0.000E+00 0.000E+00 0.000E+00
BIGSUB    3        0    8.18344E+01    23.100     0.000    57.007    27.376   112.973     0.000     1.364     3.580     7.403     4.722     0.002     0.000     0.001     0.000     0.000     0.535     0.000     0.000 .00000E+00 0.000E+00 0.000E+00 0.000E+00 0.000E+00 0.000E+00
BIGSUB    1        0    9.17227E+01    25.000     0.000    38.333    20.794   142.809     0.000     0.122     0.000    27.909     0.255     0.000     0.000     0.000     0.000     0.000     0.713     0.000     0.000 .00000E+00 0.000E+00 0.000E+00 0.000E+00 0.000E+00 0.000E+00
BIGSUB    2        0    9.22328E+01    25.000     0.000    38.433    20.752   143.799     0.000     0.128     0.000    33.682     0.175     0.000     0.000     0.000     0.000     0.000     0.528     0.000     0.000 .00000E+00 0.000E+00 0.000E+00 0.000E+00 0.000E+00 0.000E+00
BIGSUB    3        0    9.18344E+01    25.000     0.000    38.462    23.371   113.860     0.000     0.038     2.433     4.637     0.070     0.000     0.000     0.000     0.000     0.000     0.720     0.000     0.000 .00000E+00 0.000E+00 0.000E+00 0.000E+00 0.000E+00 0.000E+00
BIGSUB    1        0   10.17227E+01    37.100     0.000    28.833    20.105   156.940     0.000     1.434     0.000    23.695     8.136     0.003     0.000     0.000     0.000     0.000     1.046     0.000     0.000 .00000E+00 0.000E+00 0.000E+00 0.000E+00 0.000E+00 0.000E+00
BIGSUB    2        0   10.22328E+01    37.100     0.000    28.915    20.302   158.075     0.000     1.455     0.000    29.238     5.348     0.008     0.001     0.000     0.000     0.001     0.775     0.000     0.000 .00000E+00 0.000E+00 0.000E+00 0.000E+00 0.000E+00 0.000E+00
BIGSUB    3        0   10.18344E+01    37.100     0.000    28.939    21.950   126.713     0.000     0.846     1.503     4.552     4.321     0.001     0.000     0.000     0.000     0.000     1.053     0.000     0.000 .00000E+00 0.000E+00 0.000E+00 0.000E+00 0.000E+00 0.000E+00
BIGSUB    1        0   11.17227E+01    61.500     0.000    21.577    20.410   178.089     6.070     9.227     0.000    29.492    20.663     0.026     0.003     0.001     0.000     0.002     4.565     0.013     0.000 .00000E+00 0.000E+00 0.000E+00 0.000E+00 0.000E+00 0.000E+00
BIGSUB    2        0   11.22328E+01    61.500     0.000    21.620    20.442   178.121     8.005     9.318     0.000    33.681    13.463     0.054     0.007     0.001     0.000     0.005     3.609     0.011     0.000 .00000E+00 0.000E+00 0.000E+00 0.000E+00 0.000E+00 0.000E+00
BIGSUB    3        0   11.18344E+01    61.500     0.000    21.632    20.893   154.138     2.055     6.774     1.508    13.496    13.767     0.009     0.001     0.000     0.000     0.001     4.359     0.010     0.000 .00000E+00 0.000E+00 0.000E+00 0.000E+00 0.000E+00 0.000E+00
BIGSUB    1        0   12.17227E+01   148.700     0.000    17.295    17.128   182.021    70.509    37.171     0.000    64.147   126.797     0.110     0.013     0.001     0.000     0.010    12.651     0.058     0.000 .00000E+00 0.000E+00 0.000E+00 0.000E+00 0.000E+00 0.000E+00
BIGSUB    2        0   12.22328E+01   148.700     0.000    17.288    17.091   182.385    74.829    37.143     0.000    65.470    81.834     0.235     0.029     0.001     0.000     0.022     9.673     0.044     0.000 .00000E+00 0.000E+00 0.000E+00 0.000E+00 0.000E+00 0.000E+00
BIGSUB    3        0   12.18344E+01   148.700     0.000    17.287    17.192   182.025    50.070    35.799     2.879    50.187   115.614     0.041     0.005     0.001     0.000     0.004    10.804     0.044     0.000 .00000E+00 0.000E+00 0.000E+00 0.000E+00 0.000E+00 0.000E+00
BIGSUB    1        0 1986.17227E+01  1266.300     0.000   434.219   291.914   182.021   506.265   323.208     0.000   952.987  1076.921    30.285     3.708     0.004     0.005     2.965   145.395     0.321     0.000 .00000E+00 0.000E+00 0.000E+00 0.000E+00 0.000E+00 0.000E+00
BIGSUB    2        0 1986.22328E+01  1266.300     0.000   435.652   292.016   182.385   539.748   324.042     0.000   949.052   695.405    30.034     3.675     0.004     0.007     2.933   111.156     0.244     0.000 .00000E+00 0.000E+00 0.000E+00 0.000E+00 0.000E+00 0.000E+00
BIGSUB    3        0 1986.18344E+01  1266.300     0.000   436.068   324.938   182.025   480.938   317.900   407.229   892.304  1000.445    30.641     3.751     0.004     0.003     3.003   143.071     0.318     0.114 .00000E+00 0.000E+00 0.000E+00 0.000E+00 0.000E+00 0.000E+00
BIGSUB    1        0    1.17227E+01   265.300     0.000    16.964    16.964   182.791   128.186    84.262     0.000   141.007   293.329    29.012     3.550     0.001     0.002     2.840    32.843     0.109     0.000 .00000E+00 0.000E+00 0.000E+00 0.000E+00 0.000E+00 0.000E+00
BIGSUB    2        0    1.22328E+01   265.300     0.000    16.988    16.988   183.262   136.104    84.160     0.000   134.984   189.391    26.889     3.290     0.001     0.003     2.624    25.093     0.083     0.000 .00000E+00 0.000E+00 0.000E+00 0.000E+00 0.000E+00 0.000E+00
BIGSUB    3        0    1.18344E+01   265.300     0.000    16.995    16.995   182.792   128.143    84.448    24.090   142.108   276.796    29.786     3.644     0.001     0.002     2.915    32.533     0.115     0.009 .00000E+00 0.000E+00 0.000E+00 0.000E+00 0.000E+00 0.000E+00
BIGSUB    1        0    2.17227E+01   224.900     0.000    18.763    18.763   182.117    95.376    85.887     0.000   152.601   212.369     0.497     0.061     0.000     0.001     0.055    29.319     0.060     0.000 .00000E+00 0.000E+00 0.000E+00 0.000E+00 0.000E+00 0.000E+00
BIGSUB    2        0    2.22328E+01   224.900     0.000    18.792    18.792   182.510   101.365    86.326     0.000   145.332   137.057     1.624     0.199     0.000     0.001     0.167    22.403     0.045     0.000 .00000E+00 0.000E+00 0.000E+00 0.000E+00 0.000E+00 0.000E+00
BIGSUB    3        0    2.18344E+01   224.900     0.000    18.801    18.801   182.117    95.331    85.680    63.675   180.382   200.503     0.432     0.053     0.000     0.001     0.051    29.320     0.064     0.027 .00000E+00 0.000E+00 0.000E+00 0.000E+00 0.000E+00 0.000E+00
BIGSUB    1        0    3.17227E+01    92.200     0.000    43.733    38.399   170.116    40.310    14.280     0.000    83.872    48.160     0.052     0.006     0.000     0.000     0.006    16.377     0.026     0.000 .00000E+00 0.000E+00 0.000E+00 0.000E+00 0.000E+00 0.000E+00
BIGSUB    2        0    3.22328E+01    92.200     0.000    43.812    38.489   170.169    43.182    14.408     0.000    78.660    31.122     0.124     0.015     0.000     0.000     0.013    12.523     0.020     0.000 .00000E+00 0.000E+00 0.000E+00 0.000E+00 0.000E+00 0.000E+00
BIGSUB    3        0    3.18344E+01    92.200     0.000    43.835    41.641   166.977    40.226    14.198    78.385   111.462    45.429     0.022     0.003     0.000     0.000     0.003    16.361     0.028     0.023 .00000E+00 0.000E+00 0.000E+00 0.000E+00 0.000E+00 0.000E+00
BIGSUB    1        0    4.17227E+01    34.800     0.000    39.936    30.790   166.798     0.013     6.346     0.000    59.902    39.637     0.020     0.002     0.000     0.000     0.002     2.114     0.002     0.000 .00000E+00 0.000E+00 0.000E+00 0.000E+00 0.000E+00 0.000E+00
BIGSUB    2        0    4.22328E+01    34.800     0.000    40.064    30.888   166.979     0.022     6.348     0.000    59.534    25.568     0.051     0.006     0.000     0.000     0.005     1.609     0.001     0.000 .00000E+00 0.000E+00 0.000E+00 0.000E+00 0.000E+00 0.000E+00
BIGSUB    3        0    4.18344E+01    34.800     0.000    40.102    36.263   158.367     0.003     6.198    53.750    64.536    36.378     0.008     0.001     0.000     0.000     0.001     2.091     0.002     0.009 .00000E+00 0.000E+00 0.000E+00 0.000E+00 0.000E+00 0.000E+00
BIGSUB    1        0    5.17227E+01    14.400     0.000    63.653    30.153   150.797     0.000     0.000     0.000    45.469     0.000     0.000     0.000     0.000     0.000     0.000     0.331     0.000     0.000 .00000E+00 0.000E+00 0.000E+00 0.000E+00 0.000E+00 0.000E+00
BIGSUB    2        0    5.22328E+01    14.400     0.000    63.899    30.257   150.936     0.000     0.000     0.000    47.744     0.000     0.000     0.000     0.000     0.000     0.000     0.248     0.000     0.000 .00000E+00 0.000E+00 0.000E+00 0.000E+00 0.000E+00 0.000E+00
BIGSUB    3        0    5.18344E+01    14.400     0.000    63.971    39.082   133.439     0.000     0.000    18.993    21.559     0.000     0.000     0.000     0.000     0.000     0.000     0.328     0.000     0.002 .00000E+00 0.000E+00 0.000E+00 0.000E+00 0.000E+00 0.000E+00
BIGSUB    1        0    6.17227E+01     8.300     0.000    56.917    18.282   140.801     0.000     0.000     0.000    34.846     0.000     0.000     0.000     0.000     0.000     0.000     0.039     0.000     0.000 .00000E+00 0.000E+00 0.000E+00 0.000E+00 0.000E+00 0.000E+00
BIGSUB    2        0    6.22328E+01     8.300     0.000    57.133    18.330   140.896     0.000     0.000     0.000    38.589     0.000     0.000     0.000     0.000     0.000     0.000     0.029     0.000     0.000 .00000E+00 0.000E+00 0.000E+00 0.000E+00 0.000E+00 0.000E+00
BIGSUB    3        0    6.18344E+01     8.300     0.000    57.195    24.091   117.634     0.000     0.000     4.486     6.285     0.000     0.000     0.000     0.000     0.000     0.000     0.039     0.000     0.000 .00000E+00 0.000E+00 0.000E+00 0.000E+00 0.000E+00 0.000E+00
BIGSUB    1        0    7.17227E+01    10.300     0.000    54.493    19.396   131.606     0.000     0.000     0.000    27.961     0.000     0.000     0.000     0.000     0.000     0.000     0.104     0.000     0.000 .00000E+00 0.000E+00 0.000E+00 0.000E+00 0.000E+00 0.000E+00
BIGSUB    2        0    7.22328E+01    10.300     0.000    54.697    18.640   132.485     0.000     0.000     0.000    32.513     0.000     0.000     0.000     0.000     0.000     0.000     0.075     0.000     0.000 .00000E+00 0.000E+00 0.000E+00 0.000E+00 0.000E+00 0.000E+00
BIGSUB    3        0    7.18344E+01    10.300     0.000    54.756    23.230   104.607     0.000     0.000     1.961     3.498     0.000     0.000     0.000     0.000     0.000     0.000     0.102     0.000     0.000 .00000E+00 0.000E+00 0.000E+00 0.000E+00 0.000E+00 0.000E+00
BIGSUB    1        0    8.17227E+01    14.900     0.000    64.332    20.160   126.089     0.000     0.000     0.000    21.379     0.000     0.000     0.000     0.000     0.000     0.000     0.200     0.000     0.000 .00000E+00 0.000E+00 0.000E+00 0.000E+00 0.000E+00 0.000E+00
BIGSUB    2        0    8.22328E+01    14.900     0.000    64.554    19.694   127.502     0.000     0.000     0.000    26.007     0.000     0.000     0.000     0.000     0.000     0.000     0.148     0.000     0.000 .00000E+00 0.000E+00 0.000E+00 0.000E+00 0.000E+00 0.000E+00
BIGSUB    3        0    8.18344E+01    14.900     0.000    64.619    24.015    95.238     0.000     0.000     1.118     2.426     0.000     0.000     0.000     0.000     0.000     0.000     0.198     0.000     0.000 .00000E+00 0.000E+00 0.000E+00 0.000E+00 0.000E+00 0.000E+00
BIGSUB    1        0    9.17227E+01    23.500     0.000    49.175    20.526   128.430     0.000     0.005     0.000    15.953     0.014     0.000     0.000     0.000     0.000     0.000     0.414     0.000     0.000 .00000E+00 0.000E+00 0.000E+00 0.000E+00 0.000E+00 0.000E+00
BIGSUB    2        0    9.22328E+01    23.500     0.000    49.322    20.255   130.275     0.000     0.007     0.000    20.111     0.014     0.000     0.000     0.000     0.000     0.000     0.306     0.000     0.000 .00000E+00 0.000E+00 0.000E+00 0.000E+00 0.000E+00 0.000E+00
BIGSUB    3        0    9.18344E+01    23.500     0.000    49.364    22.987    95.125     0.000     0.003     0.439     1.680     0.007     0.000     0.000     0.000     0.000     0.000     0.411     0.000     0.000 .00000E+00 0.000E+00 0.000E+00 0.000E+00 0.000E+00 0.000E+00
BIGSUB    1        0   10.17227E+01    34.400     0.000    28.013    18.076   142.052     0.000     1.364     0.000    14.912     3.103     0.003     0.000     0.000     0.000     0.000     1.426     0.000     0.000 .00000E+00 0.000E+00 0.000E+00 0.000E+00 0.000E+00 0.000E+00
BIGSUB    2        0   10.22328E+01    34.400     0.000    28.097    18.280   143.982     0.000     1.417     0.000    18.540     2.101     0.006     0.001     0.000     0.000     0.001     1.061     0.000     0.000 .00000E+00 0.000E+00 0.000E+00 0.000E+00 0.000E+00 0.000E+00
BIGSUB    3        0   10.18344E+01    34.400     0.000    28.121    19.727   107.803     0.000     0.620     0.584     3.317     1.203     0.001     0.000     0.000     0.000     0.000     1.457     0.000     0.000 .00000E+00 0.000E+00 0.000E+00 0.000E+00 0.000E+00 0.000E+00
BIGSUB    1        0   11.17227E+01    82.700     0.000    20.089    18.241   180.387    13.034     5.289     0.000    18.891    17.400     0.015     0.002     0.000     0.000     0.001     4.724     0.015     0.000 .00000E+00 0.000E+00 0.000E+00 0.000E+00 0.000E+00 0.000E+00
BIGSUB    2        0   11.22328E+01    82.700     0.000    20.098    18.475   180.484    16.155     5.417     0.000    21.301    11.503     0.034     0.004     0.000     0.000     0.003     3.707     0.013     0.000 .00000E+00 0.000E+00 0.000E+00 0.000E+00 0.000E+00 0.000E+00
BIGSUB    3        0   11.18344E+01    82.700     0.000    20.101    18.946   157.052     4.392     3.096     0.461     8.530     9.415     0.005     0.001     0.000     0.000     0.001     4.488     0.012     0.000 .00000E+00 0.000E+00 0.000E+00 0.000E+00 0.000E+00 0.000E+00
BIGSUB    1        0   12.17227E+01   113.700     0.000    14.491    14.379   180.174    67.220    13.969     0.000    43.420    40.204     0.037     0.004     0.000     0.000     0.003    18.052     0.091     0.000 .00000E+00 0.000E+00 0.000E+00 0.000E+00 0.000E+00 0.000E+00
BIGSUB    2        0   12.22328E+01   113.700     0.000    14.485    14.337   180.251    71.569    13.996     0.000    41.640    26.168     0.083     0.010     0.000     0.000     0.008    13.886     0.070     0.000 .00000E+00 0.000E+00 0.000E+00 0.000E+00 0.000E+00 0.000E+00
BIGSUB    3        0   12.18344E+01   113.700     0.000    14.483    14.389   180.175    46.971    12.992     3.404    32.390    36.496     0.014     0.002     0.000     0.000     0.002    15.529     0.069     0.001 .00000E+00 0.000E+00 0.000E+00 0.000E+00 0.000E+00 0.000E+00
BIGSUB    1        0 1987.17227E+01   919.400     0.000   470.559   264.128   180.174   344.139   211.401     0.000   660.214   654.216    29.635     3.626     0.002     0.003     2.908   105.943     0.304     0.000 .00000E+00 0.000E+00 0.000E+00 0.000E+00 0.000E+00 0.000E+00
BIGSUB    2        0 1987.22328E+01   919.400     0.000   471.941   263.425   180.251   368.397   212.078     0.000   664.955   422.924    28.811     3.525     0.002     0.005     2.821    81.088     0.232     0.000 .00000E+00 0.000E+00 0.000E+00 0.000E+00 0.000E+00 0.000E+00
BIGSUB    3        0 1987.18344E+01   919.400     0.000   472.343   300.168   180.175   315.065   207.234   251.344   578.174   606.226    30.269     3.704     0.002     0.003     2.972   102.856     0.291     0.070 .00000E+00 0.000E+00 0.000E+00 0.000E+00 0.000E+00 0.000E+00
BIGSUB    1        0    1.17227E+01   186.600     0.000    16.678    16.677   180.941   102.467    38.683     0.000    81.524   107.602    23.170     2.834     0.000     0.001     2.253    22.852     0.086     0.000 .00000E+00 0.000E+00 0.000E+00 0.000E+00 0.000E+00 0.000E+00
BIGSUB    2        0    1.22328E+01   186.600     0.000    16.705    16.704   181.148   108.810    38.751     0.000    76.932    69.942    19.053     2.330     0.000     0.001     1.849    17.460     0.065     0.000 .00000E+00 0.000E+00 0.000E+00 0.000E+00 0.000E+00 0.000E+00
BIGSUB    3        0    1.18344E+01   186.600     0.000    16.712    16.711   180.937   102.428    38.721    13.142    75.350   101.764    23.198     2.837     0.000     0.001     2.255    22.722     0.094     0.004 .00000E+00 0.000E+00 0.000E+00 0.000E+00 0.000E+00 0.000E+00
BIGSUB    1        0    2.17227E+01   190.600     0.000    25.867    25.662   180.160    73.264    72.286     0.000   130.826   298.323     5.967     0.730     0.000     0.001     0.604    26.129     0.067     0.000 .00000E+00 0.000E+00 0.000E+00 0.000E+00 0.000E+00 0.000E+00
BIGSUB    2        0    2.22328E+01   190.600     0.000    25.908    25.703   180.198    78.028    72.444     0.000   123.666   193.716     8.851     1.083     0.000     0.002     0.881    19.971     0.050     0.000 .00000E+00 0.000E+00 0.000E+00 0.000E+00 0.000E+00 0.000E+00
BIGSUB    3        0    2.18344E+01   190.600     0.000    25.919    25.858   180.157    73.088    72.246    51.932   151.710   281.792     6.759     0.827     0.000     0.001     0.683    26.129     0.074     0.023 .00000E+00 0.000E+00 0.000E+00 0.000E+00 0.000E+00 0.000E+00
BIGSUB    1        0    3.17227E+01   149.200     0.000    37.359    36.695   180.952    58.824    35.663     0.000    94.888   110.724     0.103     0.013     0.000     0.000     0.015    15.206     0.031     0.000 .00000E+00 0.000E+00 0.000E+00 0.000E+00 0.000E+00 0.000E+00
BIGSUB    2        0    3.22328E+01   149.200     0.000    37.482    36.820   181.176    62.496    35.591     0.000    89.775    71.723     0.297     0.036     0.000     0.000     0.035    11.618     0.023     0.000 .00000E+00 0.000E+00 0.000E+00 0.000E+00 0.000E+00 0.000E+00
BIGSUB    3        0    3.18344E+01   149.200     0.000    37.518    37.323   180.946    58.294    35.761    62.727   115.631   104.538     0.045     0.006     0.000     0.000     0.010    15.122     0.033     0.019 .00000E+00 0.000E+00 0.000E+00 0.000E+00 0.000E+00 0.000E+00
BIGSUB    1        0    4.17227E+01    87.100     0.000    39.897    38.217   178.295    31.072    11.300     0.000    69.528    31.418     0.040     0.005     0.000     0.000     0.004    12.127     0.023     0.000 .00000E+00 0.000E+00 0.000E+00 0.000E+00 0.000E+00 0.000E+00
BIGSUB    2        0    4.22328E+01    87.100     0.000    40.055    38.376   178.311    33.310    11.433     0.000    66.225    20.336     0.092     0.011     0.000     0.000     0.010     9.263     0.018     0.000 .00000E+00 0.000E+00 0.000E+00 0.000E+00 0.000E+00 0.000E+00
BIGSUB    3        0    4.18344E+01    87.100     0.000    40.101    39.606   178.162    29.987    11.183    54.878    80.253    29.667     0.017     0.002     0.000     0.000     0.002    12.001     0.024     0.012 .00000E+00 0.000E+00 0.000E+00 0.000E+00 0.000E+00 0.000E+00
BIGSUB    1        0    5.17227E+01    26.400     0.000    63.496    40.963   162.873     0.000     0.120     0.000    47.338     0.349     0.000     0.000     0.000     0.000     0.000     2.206     0.003     0.000 .00000E+00 0.000E+00 0.000E+00 0.000E+00 0.000E+00 0.000E+00
BIGSUB    2        0    5.22328E+01    26.400     0.000    63.745    41.098   162.940     0.000     0.120     0.000    47.828     0.225     0.001     0.000     0.000     0.000     0.000     1.684     0.002     0.000 .00000E+00 0.000E+00 0.000E+00 0.000E+00 0.000E+00 0.000E+00
BIGSUB    3        0    5.18344E+01    26.400     0.000    63.818    51.979   151.767     0.001     0.076    35.499    39.906     0.196     0.000     0.000     0.000     0.000     0.000     2.145     0.003     0.005 .00000E+00 0.000E+00 0.000E+00 0.000E+00 0.000E+00 0.000E+00
BIGSUB    1        0    6.17227E+01     6.400     0.000    58.195    21.263   148.009     0.000     0.000     0.000    36.779     0.000     0.000     0.000     0.000     0.000     0.000     0.332     0.000     0.000 .00000E+00 0.000E+00 0.000E+00 0.000E+00 0.000E+00 0.000E+00
BIGSUB    2        0    6.22328E+01     6.400     0.000    58.424    21.274   148.066     0.000     0.000     0.000    39.325     0.000     0.000     0.000     0.000     0.000     0.000     0.250     0.000     0.000 .00000E+00 0.000E+00 0.000E+00 0.000E+00 0.000E+00 0.000E+00
BIGSUB    3        0    6.18344E+01     6.400     0.000    58.491    28.838   129.329     0.000     0.000     5.840     7.975     0.000     0.000     0.000     0.000     0.000     0.000     0.330     0.000     0.001 .00000E+00 0.000E+00 0.000E+00 0.000E+00 0.000E+00 0.000E+00
BIGSUB    1        0    7.17227E+01     5.900     0.000    68.009    20.918   132.982     0.000     0.000     0.000    29.833     0.000     0.000     0.000     0.000     0.000     0.000     0.018     0.000     0.000 .00000E+00 0.000E+00 0.000E+00 0.000E+00 0.000E+00 0.000E+00
BIGSUB    2        0    7.22328E+01     5.900     0.000    68.225    20.063   133.897     0.000     0.000     0.000    33.618     0.000     0.000     0.000     0.000     0.000     0.000     0.013     0.000     0.000 .00000E+00 0.000E+00 0.000E+00 0.000E+00 0.000E+00 0.000E+00
BIGSUB    3        0    7.18344E+01     5.900     0.000    68.288    26.656   108.564     0.000     0.000     2.662     4.185     0.000     0.000     0.000     0.000     0.000     0.000     0.018     0.000     0.000 .00000E+00 0.000E+00 0.000E+00 0.000E+00 0.000E+00 0.000E+00
BIGSUB    1        0    8.17227E+01     9.600     0.000    55.020    14.336   128.101     0.000     0.000     0.000    23.025     0.000     0.000     0.000     0.000     0.000     0.000     0.110     0.000     0.000 .00000E+00 0.000E+00 0.000E+00 0.000E+00 0.000E+00 0.000E+00
[...]
BIGSUB    1        0    3.17227E+01   232.700     0.000    30.414    30.414   181.896   116.754    51.576     0.000   138.900   141.302     0.177     0.022     0.000     0.000     0.017    32.014     0.046     0.000 .00000E+00 0.000E+00 0.000E+00 0.000E+00 0.000E+00 0.000E+00
BIGSUB    2        0    3.22328E+01   232.700     0.000    30.531    30.531   182.237   123.888    51.646     0.000   128.275    91.247     0.376     0.046     0.000     0.001     0.037    24.456     0.034     0.000 .00000E+00 0.000E+00 0.000E+00 0.000E+00 0.000E+00 0.000E+00
BIGSUB    3        0    3.18344E+01   232.700     0.000    30.565    30.565   181.894   116.614    51.606    91.975   178.163   133.363     0.070     0.010     0.000     0.000     0.007    32.010     0.049     0.036 .00000E+00 0.000E+00 0.000E+00 0.000E+00 0.000E+00 0.000E+00
BIGSUB    1        0    4.17227E+01    60.000     0.000    42.890    39.814   177.531    15.518     3.932     0.000    81.311     8.809     0.015     0.002     0.000     0.000     0.001    13.329     0.015     0.000 .00000E+00 0.000E+00 0.000E+00 0.000E+00 0.000E+00 0.000E+00
BIGSUB    2        0    4.22328E+01    60.000     0.000    43.051    39.976   177.569    16.870     4.003     0.000    75.751     5.679     0.028     0.003     0.000     0.000     0.003    10.194     0.012     0.000 .00000E+00 0.000E+00 0.000E+00 0.000E+00 0.000E+00 0.000E+00
BIGSUB    3        0    4.18344E+01    60.000     0.000    43.098    42.151   176.210    14.658     3.856    87.766   107.914     8.285     0.006     0.001     0.000     0.000     0.001    13.212     0.016     0.023 .00000E+00 0.000E+00 0.000E+00 0.000E+00 0.000E+00 0.000E+00
BIGSUB    1        0    5.17227E+01    16.700     0.000    43.164    28.774   165.116     0.000     0.023     0.000    63.648     0.067     0.000     0.000     0.000     0.000     0.000     1.308     0.001     0.000 .00000E+00 0.000E+00 0.000E+00 0.000E+00 0.000E+00 0.000E+00
BIGSUB    2        0    5.22328E+01    16.700     0.000    43.363    28.868   165.140     0.000     0.023     0.000    63.538     0.043     0.000     0.000     0.000     0.000     0.000     0.998     0.001     0.000 .00000E+00 0.000E+00 0.000E+00 0.000E+00 0.000E+00 0.000E+00
BIGSUB    3        0    5.18344E+01    16.700     0.000    43.421    36.268   156.312     0.000     0.013    58.024    62.376     0.033     0.000     0.000     0.000     0.000     0.000     1.278     0.001     0.008 .00000E+00 0.000E+00 0.000E+00 0.000E+00 0.000E+00 0.000E+00
BIGSUB    1        0    6.17227E+01     9.300     0.000    55.012    24.230   150.140     0.000     0.000     0.000    50.302     0.000     0.000     0.000     0.000     0.000     0.000     0.170     0.000     0.000 .00000E+00 0.000E+00 0.000E+00 0.000E+00 0.000E+00 0.000E+00
BIGSUB    2        0    6.22328E+01     9.300     0.000    55.227    24.289   150.117     0.000     0.000     0.000    53.119     0.000     0.000     0.000     0.000     0.000     0.000     0.128     0.000     0.000 .00000E+00 0.000E+00 0.000E+00 0.000E+00 0.000E+00 0.000E+00
BIGSUB    3        0    6.18344E+01     9.300     0.000    55.290    32.124   133.442     0.000     0.000    16.808    19.488     0.000     0.000     0.000     0.000     0.000     0.000     0.168     0.000     0.002 .00000E+00 0.000E+00 0.000E+00 0.000E+00 0.000E+00 0.000E+00
BIGSUB    1        0    7.17227E+01     4.600     0.000    70.943    16.995   137.745     0.000     0.000     0.000    40.911     0.000     0.000     0.000     0.000     0.000     0.000     0.009     0.000     0.000 .00000E+00 0.000E+00 0.000E+00 0.000E+00 0.000E+00 0.000E+00
BIGSUB    2        0    7.22328E+01     4.600     0.000    71.157    17.015   137.702     0.000     0.000     0.000    45.581     0.000     0.000     0.000     0.000     0.000     0.000     0.007     0.000     0.000 .00000E+00 0.000E+00 0.000E+00 0.000E+00 0.000E+00 0.000E+00
BIGSUB    3        0    7.18344E+01     4.600     0.000    71.220    24.176   113.866     0.000     0.000     4.653     6.751     0.000     0.000     0.000     0.000     0.000     0.000     0.009     0.000     0.000 .00000E+00 0.000E+00 0.000E+00 0.000E+00 0.000E+00 0.000E+00
BIGSUB    1        0    8.17227E+01    10.900     0.000    50.694    18.601   129.996     0.000     0.000     0.000    31.445     0.000     0.000     0.000     0.000     0.000     0.000     0.044     0.000     0.000 .00000E+00 0.000E+00 0.000E+00 0.000E+00 0.000E+00 0.000E+00
BIGSUB    2        0    8.22328E+01    10.900     0.000    50.881    18.064   130.503     0.000     0.000     0.000    36.853     0.000     0.000     0.000     0.000     0.000     0.000     0.033     0.000     0.000 .00000E+00 0.000E+00 0.000E+00 0.000E+00 0.000E+00 0.000E+00
BIGSUB    3        0    8.18344E+01    10.900     0.000    50.936    22.211   102.508     0.000     0.000     3.177     4.855     0.000     0.000     0.000     0.000     0.000     0.000     0.044     0.000     0.000 .00000E+00 0.000E+00 0.000E+00 0.000E+00 0.000E+00 0.000E+00
BIGSUB    1        0    9.17227E+01    19.000     0.000    39.714    16.619   131.862     0.000     0.000     0.000    23.416     0.000     0.000     0.000     0.000     0.000     0.000     0.266     0.000     0.000 .00000E+00 0.000E+00 0.000E+00 0.000E+00 0.000E+00 0.000E+00
BIGSUB    2        0    9.22328E+01    19.000     0.000    39.816    16.158   132.965     0.000     0.000     0.000    28.633     0.000     0.000     0.000     0.000     0.000     0.000     0.196     0.000     0.000 .00000E+00 0.000E+00 0.000E+00 0.000E+00 0.000E+00 0.000E+00
BIGSUB    3        0    9.18344E+01    19.000     0.000    39.845    18.973   102.025     0.000     0.000     1.752     3.241     0.000     0.000     0.000     0.000     0.000     0.000     0.264     0.000     0.000 .00000E+00 0.000E+00 0.000E+00 0.000E+00 0.000E+00 0.000E+00
BIGSUB    1        0   10.17227E+01    71.100     0.000    28.208    22.943   174.185     0.000     1.868     0.000    22.880     6.028     0.004     0.001     0.000     0.000     0.000     2.895     0.002     0.000 .00000E+00 0.000E+00 0.000E+00 0.000E+00 0.000E+00 0.000E+00
BIGSUB    2        0   10.22328E+01    71.100     0.000    28.260    23.277   175.838     0.000     1.912     0.000    27.324     3.986     0.009     0.001     0.000     0.000     0.001     2.193     0.001     0.000 .00000E+00 0.000E+00 0.000E+00 0.000E+00 0.000E+00 0.000E+00
BIGSUB    3        0   10.18344E+01    71.100     0.000    28.275    24.553   143.594     0.000     1.074     1.422     6.336     3.125     0.001     0.000     0.000     0.000     0.000     2.866     0.001     0.000 .00000E+00 0.000E+00 0.000E+00 0.000E+00 0.000E+00 0.000E+00
BIGSUB    1        0   11.17227E+01    61.400     0.000    21.149    20.438   180.378    20.034     7.852     0.000    28.855    27.063     0.021     0.003     0.001     0.000     0.002     6.694     0.025     0.000 .00000E+00 0.000E+00 0.000E+00 0.000E+00 0.000E+00 0.000E+00
BIGSUB    2        0   11.22328E+01    61.400     0.000    21.163    20.404   180.460    23.090     7.904     0.000    31.784    17.538     0.045     0.005     0.001     0.000     0.004     5.245     0.021     0.000 .00000E+00 0.000E+00 0.000E+00 0.000E+00 0.000E+00 0.000E+00
BIGSUB    3        0   11.18344E+01    61.400     0.000    21.166    20.872   166.513     6.183     5.819     2.087    14.337    18.428     0.007     0.001     0.001     0.000     0.001     5.699     0.017     0.000 .00000E+00 0.000E+00 0.000E+00 0.000E+00 0.000E+00 0.000E+00
BIGSUB    1        0   12.17227E+01    38.400     0.000    28.431    22.668   177.380    12.556     1.984     0.000    20.016     8.477     0.005     0.001     0.000     0.000     0.000     4.392     0.018     0.000 .00000E+00 0.000E+00 0.000E+00 0.000E+00 0.000E+00 0.000E+00
BIGSUB    2        0   12.22328E+01    38.400     0.000    28.398    22.550   177.511    13.591     1.989     0.000    22.725     5.479     0.010     0.001     0.000     0.000     0.001     3.377     0.014     0.000 .00000E+00 0.000E+00 0.000E+00 0.000E+00 0.000E+00 0.000E+00
BIGSUB    3        0   12.18344E+01    38.400     0.000    28.389    25.889   170.568     3.682     1.591     2.076     7.670     6.379     0.002     0.000     0.000     0.000     0.000     3.399     0.009     0.000 .00000E+00 0.000E+00 0.000E+00 0.000E+00 0.000E+00 0.000E+00
BIGSUB    1        0 1989.17227E+01  1055.600     0.000   448.108   278.984   177.380   408.929   251.440     0.000   803.626   861.780    29.444     3.601     0.003     0.004     2.898   125.260     0.294     0.000 .00000E+00 0.000E+00 0.000E+00 0.000E+00 0.000E+00 0.000E+00
BIGSUB    2        0 1989.22328E+01  1055.600     0.000   449.395   278.678   177.511   436.819   252.036     0.000   799.736   556.606    28.855     3.529     0.003     0.005     2.834    95.835     0.222     0.000 .00000E+00 0.000E+00 0.000E+00 0.000E+00 0.000E+00 0.000E+00
BIGSUB    3        0 1989.18344E+01  1055.600     0.000   449.769   315.346   170.568   385.105   248.168   346.888   738.452   801.724    29.971     3.667     0.002     0.003     2.952   122.643     0.296     0.105 .00000E+00 0.000E+00 0.000E+00 0.000E+00 0.000E+00 0.000E+00
BIGSUB    1        0    1.17227E+01   138.700     0.000    16.347    16.256   180.828    80.432    16.377     0.000    49.102    39.749    13.722     1.678     0.000     0.001     1.332    17.565     0.076     0.000 .00000E+00 0.000E+00 0.000E+00 0.000E+00 0.000E+00 0.000E+00
BIGSUB    2        0    1.22328E+01   138.700     0.000    16.372    16.282   180.990    85.551    16.418     0.000    47.686    25.699    10.418     1.274     0.000     0.001     1.010    13.435     0.058     0.000 .00000E+00 0.000E+00 0.000E+00 0.000E+00 0.000E+00 0.000E+00
BIGSUB    3        0    1.18344E+01   138.700     0.000    16.379    16.353   180.827    74.253    16.334     4.099    37.614    37.403    13.446     1.644     0.000     0.001     1.305    16.595     0.075     0.001 .00000E+00 0.000E+00 0.000E+00 0.000E+00 0.000E+00 0.000E+00
BIGSUB    1        0    2.17227E+01    73.200     0.000    19.244    18.021   180.737    34.347    11.055     0.000    43.528    43.909     5.787     0.708     0.000     0.000     0.570    11.974     0.043     0.000 .00000E+00 0.000E+00 0.000E+00 0.000E+00 0.000E+00 0.000E+00
BIGSUB    2        0    2.22328E+01    73.200     0.000    19.271    18.048   180.913    36.599    11.031     0.000    41.692    28.335     5.039     0.616     0.000     0.000     0.493     9.161     0.033     0.000 .00000E+00 0.000E+00 0.000E+00 0.000E+00 0.000E+00 0.000E+00
BIGSUB    3        0    2.18344E+01    73.200     0.000    19.279    18.890   180.732    33.618    11.071    17.937    41.733    41.348     5.898     0.721     0.000     0.000     0.580    11.884     0.047     0.005 .00000E+00 0.000E+00 0.000E+00 0.000E+00 0.000E+00 0.000E+00
BIGSUB    1        0    3.17227E+01    67.900     0.000    37.862    34.540   176.722    22.557     7.892     0.000    44.882    23.861     2.226     0.272     0.000     0.000     0.221     9.680     0.030     0.000 .00000E+00 0.000E+00 0.000E+00 0.000E+00 0.000E+00 0.000E+00
BIGSUB    2        0    3.22328E+01    67.900     0.000    37.955    34.621   176.781    24.227     7.939     0.000    43.260    15.392     2.181     0.267     0.000     0.000     0.214     7.405     0.023     0.000 .00000E+00 0.000E+00 0.000E+00 0.000E+00 0.000E+00 0.000E+00
BIGSUB    3        0    3.18344E+01    67.900     0.000    37.982    37.013   175.110    21.829     7.837    32.353    50.888    22.458     2.335     0.286     0.000     0.000     0.231     9.510     0.032     0.007 .00000E+00 0.000E+00 0.000E+00 0.000E+00 0.000E+00 0.000E+00
BIGSUB    1        0    4.17227E+01    49.800     0.000    45.497    37.034   167.607    11.667     6.076     0.000    37.447    30.256     1.929     0.236     0.000     0.000     0.193     4.579     0.012     0.000 .00000E+00 0.000E+00 0.000E+00 0.000E+00 0.000E+00 0.000E+00
BIGSUB    2        0    4.22328E+01    49.800     0.000    45.613    37.128   167.605    12.602     6.080     0.000    37.342    19.513     1.993     0.244     0.000     0.000     0.197     3.503     0.009     0.000 .00000E+00 0.000E+00 0.000E+00 0.000E+00 0.000E+00 0.000E+00
BIGSUB    3        0    4.18344E+01    49.800     0.000    45.646    42.359   163.009     9.687     6.026    25.782    37.295    28.309     2.045     0.250     0.000     0.000     0.204     4.281     0.012     0.004 .00000E+00 0.000E+00 0.000E+00 0.000E+00 0.000E+00 0.000E+00
BIGSUB    1        0    5.17227E+01    27.000     0.000    52.012    31.734   161.782     0.000     0.311     0.000    26.389     1.361     0.066     0.008     0.000     0.000     0.007     1.196     0.002     0.000 .00000E+00 0.000E+00 0.000E+00 0.000E+00 0.000E+00 0.000E+00
BIGSUB    2        0    5.22328E+01    27.000     0.000    52.214    31.847   161.863     0.000     0.311     0.000    27.821     0.877     0.075     0.009     0.000     0.000     0.007     0.907     0.002     0.000 .00000E+00 0.000E+00 0.000E+00 0.000E+00 0.000E+00 0.000E+00
BIGSUB    3        0    5.18344E+01    27.000     0.000    52.273    40.252   148.743     0.000     0.232     5.838     8.377     0.919     0.053     0.006     0.000     0.000     0.005     1.165     0.002     0.001 .00000E+00 0.000E+00 0.000E+00 0.000E+00 0.000E+00 0.000E+00
BIGSUB    1        0    6.17227E+01    21.500     0.000    41.392    23.593   159.029     0.000     0.100     0.000    20.318     0.405     0.020     0.002     0.000     0.000     0.002     0.495     0.000     0.000 .00000E+00 0.000E+00 0.000E+00 0.000E+00 0.000E+00 0.000E+00
BIGSUB    2        0    6.22328E+01    21.500     0.000    41.574    23.700   159.143     0.000     0.101     0.000    22.498     0.261     0.022     0.003     0.000     0.000     0.002     0.370     0.000     0.000 .00000E+00 0.000E+00 0.000E+00 0.000E+00 0.000E+00 0.000E+00
BIGSUB    3        0    6.18344E+01    21.500     0.000    41.627    28.981   140.659     0.000     0.044     2.276     3.737     0.150     0.009     0.001     0.000     0.000     0.001     0.493     0.000     0.000 .00000E+00 0.000E+00 0.000E+00 0.000E+00 0.000E+00 0.000E+00
BIGSUB    1        0    7.17227E+01     8.100     0.000    61.213    25.096   142.033     0.000     0.000     0.000    16.254     0.000     0.000     0.000     0.000     0.000     0.000     0.273     0.000     0.000 .00000E+00 0.000E+00 0.000E+00 0.000E+00 0.000E+00 0.000E+00
BIGSUB    2        0    7.22328E+01     8.100     0.000    61.459    24.453   142.790     0.000     0.000     0.000    18.897     0.000     0.000     0.000     0.000     0.000     0.000     0.204     0.000     0.000 .00000E+00 0.000E+00 0.000E+00 0.000E+00 0.000E+00 0.000E+00
BIGSUB    3        0    7.18344E+01     8.100     0.000    61.530    30.522   118.237     0.000     0.000     0.454     1.492     0.000     0.000     0.000     0.000     0.000     0.000     0.273     0.000     0.000 .00000E+00 0.000E+00 0.000E+00 0.000E+00 0.000E+00 0.000E+00
BIGSUB    1        0    8.17227E+01    12.100     0.000    45.403    17.010   136.921     0.000     0.000     0.000    12.345     0.000     0.000     0.000     0.000     0.000     0.000     0.124     0.000     0.000 .00000E+00 0.000E+00 0.000E+00 0.000E+00 0.000E+00 0.000E+00
BIGSUB    2        0    8.22328E+01    12.100     0.000    45.567    16.728   138.012     0.000     0.000     0.000    15.057     0.000     0.000     0.000     0.000     0.000     0.000     0.092     0.000     0.000 .00000E+00 0.000E+00 0.000E+00 0.000E+00 0.000E+00 0.000E+00
BIGSUB    3        0    8.18344E+01    12.100     0.000    45.615    20.267   109.870     0.000     0.000     0.161     0.881     0.000     0.000     0.000     0.000     0.000     0.000     0.123     0.000     0.000 .00000E+00 0.000E+00 0.000E+00 0.000E+00 0.000E+00 0.000E+00
BIGSUB    1        0    9.17227E+01    19.600     0.000    38.381    20.117   135.953     0.000     0.000     0.000     9.407     0.000     0.000     0.000     0.000     0.000     0.000     0.417     0.000     0.000 .00000E+00 0.000E+00 0.000E+00 0.000E+00 0.000E+00 0.000E+00
BIGSUB    2        0    9.22328E+01    19.600     0.000    38.515    20.140   137.141     0.000     0.000     0.000    11.790     0.000     0.000     0.000     0.000     0.000     0.000     0.307     0.000     0.000 .00000E+00 0.000E+00 0.000E+00 0.000E+00 0.000E+00 0.000E+00
BIGSUB    3        0    9.18344E+01    19.600     0.000    38.554    22.586   106.438     0.000     0.000     0.142     1.001     0.000     0.000     0.000     0.000     0.000     0.000     0.412     0.000     0.000 .00000E+00 0.000E+00 0.000E+00 0.000E+00 0.000E+00 0.000E+00
BIGSUB    1        0   10.17227E+01    58.400     0.000    29.687    21.544   168.814     0.000     1.016     0.000     9.968     3.316     0.196     0.024     0.000     0.000     0.020     1.928     0.001     0.000 .00000E+00 0.000E+00 0.000E+00 0.000E+00 0.000E+00 0.000E+00
BIGSUB    2        0   10.22328E+01    58.400     0.000    29.789    21.784   170.394     0.000     1.055     0.000    11.855     2.219     0.230     0.028     0.000     0.000     0.023     1.473     0.001     0.000 .00000E+00 0.000E+00 0.000E+00 0.000E+00 0.000E+00 0.000E+00
BIGSUB    3        0   10.18344E+01    58.400     0.000    29.819    23.055   138.452     0.000     0.490     0.001     2.739     1.521     0.102     0.012     0.000     0.000     0.010     1.893     0.001     0.000 .00000E+00 0.000E+00 0.000E+00 0.000E+00 0.000E+00 0.000E+00
BIGSUB    1        0   11.17227E+01     2.400     0.000     1.243     0.918   170.229     0.000     0.001     0.000     0.627     0.000     0.000     0.000     0.000     0.000     0.000     0.238     0.000     0.000 .00000E+00 0.000E+00 0.000E+00 0.000E+00 0.000E+00 0.000E+00
BIGSUB    2        0   11.22328E+01     2.400     0.000     1.249     0.924   171.821     0.000     0.002     0.000     0.714     0.000     0.000     0.000     0.000     0.000     0.000     0.187     0.000     0.000 .00000E+00 0.000E+00 0.000E+00 0.000E+00 0.000E+00 0.000E+00
BIGSUB    3        0   11.18344E+01     2.400     0.000     1.251     1.055   139.731     0.000     0.000     0.000     0.238     0.000     0.000     0.000     0.000     0.000     0.000     0.218     0.000     0.000 .00000E+00 0.000E+00 0.000E+00 0.000E+00 0.000E+00 0.000E+00
BIGSUB    1        0 1990.17227E+01   478.700     0.000   388.279   245.863   170.229   149.002    42.829     0.000   270.267   142.857    23.945     2.928     0.002     0.001     2.343    48.468     0.166     0.000 .00000E+00 0.000E+00 0.000E+00 0.000E+00 0.000E+00 0.000E+00
BIGSUB    2        0 1990.22328E+01   478.700     0.000   389.578   245.654   171.821   158.979    42.936     0.000   278.612    92.296    19.958     2.440     0.002     0.001     1.948    37.045     0.126     0.000 .00000E+00 0.000E+00 0.000E+00 0.000E+00 0.000E+00 0.000E+00
BIGSUB    3        0 1990.18344E+01   478.700     0.000   389.955   281.333   139.731   139.386    42.034    89.042   185.996   132.107    23.889     2.921     0.002     0.001     2.335    46.848     0.168     0.017 .00000E+00 0.000E+00 0.000E+00 0.000E+00 0.000E+00 0.000E+00
BIGSUB    1        0  9.5.17227E+01  1015.174     0.000   439.956   272.659   170.229   386.467   234.445     0.000   715.594   777.181    47.394     5.802     0.003     0.005     4.627   113.941     0.442     0.000 .00000E+00 0.000E+00 0.000E+00 0.000E+00 0.000E+00 0.000E+00
BIGSUB    2        0  9.5.22328E+01  1015.174     0.000   441.368   272.503   171.821   412.705   235.013     0.000   713.390   502.226    45.361     5.553     0.004     0.007     4.421    87.147     0.336     0.000 .00000E+00 0.000E+00 0.000E+00 0.000E+00 0.000E+00 0.000E+00
BIGSUB    3        0  9.5.18344E+01  1015.174     0.000   441.778   306.359   139.731   362.206   230.695   288.892   649.040   721.217    48.374     5.922     0.003     0.004     4.724   111.457     0.437     0.116 .00000E+00 0.000E+00 0.000E+00 0.000E+00 0.000E+00 0.000E+00
