1
    SWAT Dec 23 2016    VER 2016/Rev 664                                                                 0/ 0/   0      0: 0: 0

    General Input/Output section (file.cio):                                        
    5/31/2025 12:00:00 AM ARCGIS-SWAT interface AV                                  
                                                                                    
         Number of years in run:   10
         Area of watershed:        5.330 km2
         Random number generator cycles: 0, use default numbers

         Initial random number seed: wet/dry day prob        748932582
         Initial random number seed: radiation              1948832765
         Initial random number seed: precipitation           857034417
         Initial random number seed: 0.5 hr rainfall          67377721
         Initial random number seed: wind speed              366304404
         Initial random number seed: irrigation             1094585182
         Initial random number seed: relative humidity      1767585417
         Initial random number seed: max temperature         608439319
         Initial random number seed: min temperature         592757081

         Precipitation data used in run:
          Multiple gages read for watershed
             Daily rainfall data used

         Temperature data used in run:
          Multiple gages read for watershed

         PET method used: Penman-Monteith

         Rainfall/Runoff/Routing Option:
          Daily rainfall data
          Runoff estimated with curve number method
          Daily stream routing
           Variable Storage routing method
           Channel dimensions remain constant
           Subbasin algae/CBOD loadings not modeled
           In-stream nutrient transformations modeled using QUAL2E equations

         Subbasin Input Summary:
          Sub Latitude  Elev(m) #HRUs Ponds Elevbnds Wetlnd
            1    33.03  4946.29    12          x        
            2    33.03  5174.90    17          x        
            3    33.03  5136.05    20          x        

         HRU Input Summary Table 1:
          Sub   HRU   Area(ha) Slope SlpLgth(m) Ovrlnd_N CondII_CN TimeConc(hr) ESCO EPCO
            1      1     112.98 0.373       9.15    0.150     79.00        0.155 0.95 1.00
            1      2       2.55 0.000     121.95    0.150     79.00        5.042 0.95 1.00
            1      3     108.09 0.546       9.15    0.140     91.00        0.140 0.95 1.00
            1      4       0.56 0.000     121.95    0.140     91.00        4.836 0.95 1.00
            1      5      14.56 0.000     121.95    0.050     79.00        2.618 0.95 1.00
            1      6       5.70 0.000     121.95    0.010     92.00        0.997 0.95 1.00
            1      7       0.84 0.575       9.15    0.140     91.00        0.077 0.95 1.00
            1      8       0.02 0.000     121.95    0.140     91.00        4.836 0.95 1.00
            1      9       0.92 0.888       9.15    0.140     91.00        0.068 0.95 1.00
            1     10       0.59 0.656       9.15    0.140     91.00        0.074 0.95 1.00
            1     11       0.23 0.573       9.15    0.140     91.00        0.077 0.95 1.00
            1     12       0.97 0.567       9.15    0.140     91.00        0.077 0.95 1.00
            2     13      97.09 0.582       9.15    0.140     91.00        0.140 0.95 1.00
            2     14       0.53 0.000     121.95    0.140     91.00        4.836 0.95 1.00
            2     15       2.73 0.000     121.95    0.010     92.00        0.995 0.95 1.00
            2     16       7.28 0.442       9.15    0.150     79.00        0.092 0.95 1.00
            2     17       0.05 0.000     121.95    0.150     79.00        5.040 0.95 1.00
            2     18       2.63 0.588       9.15    0.140     91.00        0.078 0.95 1.00
            2     19       4.27 0.676       9.15    0.140     91.00        0.077 0.95 1.00
            2     20      10.64 0.663       9.15    0.140     91.00        0.082 0.95 1.00
            2     21       0.05 0.000     121.95    0.140     91.00        4.836 0.95 1.00
            2     22      11.86 0.543       9.15    0.140     91.00        0.088 0.95 1.00
            2     23       0.08 0.000     121.95    0.140     91.00        4.836 0.95 1.00
            2     24       2.05 0.371       9.15    0.140     91.00        0.089 0.95 1.00
            2     25       0.03 0.000     121.95    0.140     91.00        4.836 0.95 1.00
            2     26       1.22 0.837       9.15    0.140     91.00        0.069 0.95 1.00
            2     27       4.61 0.612       9.15    0.140     91.00        0.079 0.95 1.00
            2     28       2.08 0.416       9.15    0.140     91.00        0.086 0.95 1.00
            2     29       0.11 0.309       9.15    0.140     91.00        0.092 0.95 1.00
            3     30       8.16 0.777       9.15    0.140     91.00        0.079 0.95 1.00
            3     31       6.03 0.742       9.15    0.140     91.00        0.078 0.95 1.00
            3     32       9.89 0.711       9.15    0.140     91.00        0.083 0.95 1.00
            3     33      45.08 0.706       9.15    0.140     91.00        0.114 0.95 1.00
            3     34       0.16 0.000     121.95    0.140     91.00        4.836 0.95 1.00
            3     35      14.16 0.548       9.15    0.140     91.00        0.093 0.95 1.00
            3     36       0.05 0.000     121.95    0.140     91.00        4.836 0.95 1.00
            3     37      16.12 0.449       9.15    0.140     91.00        0.099 0.95 1.00
            3     38       1.55 0.677       9.15    0.150     79.00        0.078 0.95 1.00
            3     39       0.02 0.000     121.95    0.150     79.00        5.040 0.95 1.00
            3     40       4.02 0.806       9.15    0.140     91.00        0.074 0.95 1.00
            3     41       0.89 0.468       9.15    0.140     91.00        0.082 0.95 1.00
            3     42       3.70 0.000     121.95    0.010     92.00        0.997 0.95 1.00
            3     43      10.53 0.524       9.15    0.140     91.00        0.090 0.95 1.00
            3     44       0.06 0.000     121.95    0.140     91.00        4.836 0.95 1.00
            3     45      11.12 0.438       9.15    0.140     91.00        0.095 0.95 1.00
            3     46       0.06 0.000     121.95    0.140     91.00        4.836 0.95 1.00
            3     47       5.56 0.328       9.15    0.140     91.00        0.097 0.95 1.00
            3     48       0.36 0.000     121.95    0.140     91.00        4.836 0.95 1.00
            3     49       0.17 0.324       9.15    0.140     91.00        0.091 0.95 1.00

         HRU CN Input Summary Table:
          Sub   HRU   Area(ha)  LULC      Soil    CN1    CN2    CN3  Wilting Point (mm H2O)  Field Capacity (mm H2O)  Saturation (mm H2O)
            1      1     112.98  PJNL  I-Bh-Tv-   61.7   79.0   91.0                    87.5                    120.0                508.7
            1      2       2.55  PJNL  I-Bh-Tv-   61.7   79.0   91.0                    87.5                    120.0                508.7
            1      3     108.09  BARR  I-Bh-Tv-   79.8   91.0   96.7                    87.5                    120.0                508.7
            1      4       0.56  BARR  I-Bh-Tv-   79.8   91.0   96.7                    87.5                    120.0                508.7
            1      5      14.56  WETN  I-Bh-Tv-   61.7   79.0   91.0                    87.5                    120.0                508.7
            1      6       5.70  WATR  I-Bh-Tv-   81.7   92.0   97.1                    87.5                    120.0                508.7
            1      7       0.84  ES9   I-Bh-Tv-   79.8   91.0   96.7                    87.5                    120.0                508.7
            1      8       0.02  ES9   I-Bh-Tv-   79.8   91.0   96.7                    87.5                    120.0                508.7
            1      9       0.92  ES10  I-Bh-Tv-   79.8   91.0   96.7                    87.5                    120.0                508.7
            1     10       0.59  ES11  I-Bh-Tv-   79.8   91.0   96.7                    87.5                    120.0                508.7
            1     11       0.23  ES12  I-Bh-Tv-   79.8   91.0   96.7                    87.5                    120.0                508.7
            1     12       0.97  ES13  I-Bh-Tv-   79.8   91.0   96.7                    87.5                    120.0                508.7
            2     13      97.09  BARR  I-Bh-Tv-   79.8   91.0   96.7                    87.5                    120.0                508.7
            2     14       0.53  BARR  I-Bh-Tv-   79.8   91.0   96.7                    87.5                    120.0                508.7
            2     15       2.73  WATR  I-Bh-Tv-   81.7   92.0   97.1                    87.5                    120.0                508.7
            2     16       7.28  PJNL  I-Bh-Tv-   61.7   79.0   91.0                    87.5                    120.0                508.7
            2     17       0.05  PJNL  I-Bh-Tv-   61.7   79.0   91.0                    87.5                    120.0                508.7
            2     18       2.63  ES10  I-Bh-Tv-   79.8   91.0   96.7                    87.5                    120.0                508.7
            2     19       4.27  ES11  I-Bh-Tv-   79.8   91.0   96.7                    87.5                    120.0                508.7
            2     20      10.64  ES13  I-Bh-Tv-   79.8   91.0   96.7                    87.5                    120.0                508.7
            2     21       0.05  ES13  I-Bh-Tv-   79.8   91.0   96.7                    87.5                    120.0                508.7
            2     22      11.86  ES12  I-Bh-Tv-   79.8   91.0   96.7                    87.5                    120.0                508.7
            2     23       0.08  ES12  I-Bh-Tv-   79.8   91.0   96.7                    87.5                    120.0                508.7
            2     24       2.05  ES8   I-Bh-Tv-   79.8   91.0   96.7                    87.5                    120.0                508.7
            2     25       0.03  ES8   I-Bh-Tv-   79.8   91.0   96.7                    87.5                    120.0                508.7
            2     26       1.22  ES9   I-Bh-Tv-   79.8   91.0   96.7                    87.5                    120.0                508.7
            2     27       4.61  ES14  I-Bh-Tv-   79.8   91.0   96.7                    87.5                    120.0                508.7
            2     28       2.08  ES15  I-Bh-Tv-   79.8   91.0   96.7                    87.5                    120.0                508.7
            2     29       0.11  ES16  I-Bh-Tv-   79.8   91.0   96.7                    87.5                    120.0                508.7
            3     30       8.16  ES11  I-Bh-Tv-   79.8   91.0   96.7                    87.5                    120.0                508.7
            3     31       6.03  ES12  I-Bh-Tv-   79.8   91.0   96.7                    87.5                    120.0                508.7
            3     32       9.89  ES10  I-Bh-Tv-   79.8   91.0   96.7                    87.5                    120.0                508.7
            3     33      45.08  BARR  I-Bh-Tv-   79.8   91.0   96.7                    87.5                    120.0                508.7
            3     34       0.16  BARR  I-Bh-Tv-   79.8   91.0   96.7                    87.5                    120.0                508.7
            3     35      14.16  ES9   I-Bh-Tv-   79.8   91.0   96.7                    87.5                    120.0                508.7
            3     36       0.05  ES9   I-Bh-Tv-   79.8   91.0   96.7                    87.5                    120.0                508.7
            3     37      16.12  ES8   I-Bh-Tv-   79.8   91.0   96.7                    87.5                    120.0                508.7
            3     38       1.55  PJNL  I-Bh-Tv-   61.7   79.0   91.0                    87.5                    120.0                508.7
            3     39       0.02  PJNL  I-Bh-Tv-   61.7   79.0   91.0                    87.5                    120.0                508.7
            3     40       4.02  ES13  I-Bh-Tv-   79.8   91.0   96.7                    87.5                    120.0                508.7
            3     41       0.89  ES14  I-Bh-Tv-   79.8   91.0   96.7                    87.5                    120.0                508.7
            3     42       3.70  WATR  I-Bh-Tv-   81.7   92.0   97.1                    87.5                    120.0                508.7
            3     43      10.53  ES7   I-Bh-Tv-   79.8   91.0   96.7                    87.5                    120.0                508.7
            3     44       0.06  ES7   I-Bh-Tv-   79.8   91.0   96.7                    87.5                    120.0                508.7
            3     45      11.12  ES6   I-Bh-Tv-   79.8   91.0   96.7                    87.5                    120.0                508.7
            3     46       0.06  ES6   I-Bh-Tv-   79.8   91.0   96.7                    87.5                    120.0                508.7
            3     47       5.56  ES5   I-Bh-Tv-   79.8   91.0   96.7                    87.5                    120.0                508.7
            3     48       0.36  ES5   I-Bh-Tv-   79.8   91.0   96.7                    87.5                    120.0                508.7
            3     49       0.17  ES4   I-Bh-Tv-   79.8   91.0   96.7                    87.5                    120.0                508.7

         HRU Input Summary Table 2:
          Sub   HRU   Area(ha)         SoilName Hydgrp MaxRtDpth(mm) Albedo USLE_K USLE_P USLE_LS ProfileAWC(mm) IniSoilH2O(mm)
            1      1     112.98 I-Bh-Tv-c-5518     C           670.00   0.10   0.27   1.00    5.68    120.000         65.430
            1      2       2.55 I-Bh-Tv-c-5518     C           670.00   0.10   0.27   1.00    0.07    120.000         65.430
            1      3     108.09 I-Bh-Tv-c-5518     C           100.00   0.10   0.27   1.00   10.17    120.000         65.430
            1      4       0.56 I-Bh-Tv-c-5518     C           100.00   0.10   0.27   1.00    0.07    120.000         65.430
            1      5      14.56 I-Bh-Tv-c-5518     C           670.00   0.10   0.27   1.00    0.07    120.000         65.430
            1      6       5.70 I-Bh-Tv-c-5518     C           670.00   0.10   0.27   1.00    0.07    120.000         65.430
            1      7       0.84 I-Bh-Tv-c-5518     C           100.00   0.10   0.27   1.00   10.94    120.000         65.430
            1      8       0.02 I-Bh-Tv-c-5518     C           100.00   0.10   0.27   1.00    0.07    120.000         65.430
            1      9       0.92 I-Bh-Tv-c-5518     C           100.00   0.10   0.27   1.00   18.79    120.000         65.430
            1     10       0.59 I-Bh-Tv-c-5518     C           100.00   0.10   0.27   1.00   13.09    120.000         65.430
            1     11       0.23 I-Bh-Tv-c-5518     C           100.00   0.10   0.27   1.00   10.89    120.000         65.430
            1     12       0.97 I-Bh-Tv-c-5518     C           100.00   0.10   0.27   1.00   10.73    120.000         65.430
            2     13      97.09 I-Bh-Tv-c-5518     C           100.00   0.10   0.27   1.00   11.13    120.000         65.430
            2     14       0.53 I-Bh-Tv-c-5518     C           100.00   0.10   0.27   1.00    0.07    120.000         65.430
            2     15       2.73 I-Bh-Tv-c-5518     C           670.00   0.10   0.27   1.00    0.07    120.000         65.430
            2     16       7.28 I-Bh-Tv-c-5518     C           670.00   0.10   0.27   1.00    7.41    120.000         65.430
            2     17       0.05 I-Bh-Tv-c-5518     C           670.00   0.10   0.27   1.00    0.07    120.000         65.430
            2     18       2.63 I-Bh-Tv-c-5518     C           100.00   0.10   0.27   1.00   11.29    120.000         65.430
            2     19       4.27 I-Bh-Tv-c-5518     C           100.00   0.10   0.27   1.00   13.62    120.000         65.430
            2     20      10.64 I-Bh-Tv-c-5518     C           100.00   0.10   0.27   1.00   13.28    120.000         65.430
            2     21       0.05 I-Bh-Tv-c-5518     C           100.00   0.10   0.27   1.00    0.07    120.000         65.430
            2     22      11.86 I-Bh-Tv-c-5518     C           100.00   0.10   0.27   1.00   10.08    120.000         65.430
            2     23       0.08 I-Bh-Tv-c-5518     C           100.00   0.10   0.27   1.00    0.07    120.000         65.430
            2     24       2.05 I-Bh-Tv-c-5518     C           100.00   0.10   0.27   1.00    5.63    120.000         65.430
            2     25       0.03 I-Bh-Tv-c-5518     C           100.00   0.10   0.27   1.00    0.07    120.000         65.430
            2     26       1.22 I-Bh-Tv-c-5518     C           100.00   0.10   0.27   1.00   17.62    120.000         65.430
            2     27       4.61 I-Bh-Tv-c-5518     C           100.00   0.10   0.27   1.00   11.93    120.000         65.430
            2     28       2.08 I-Bh-Tv-c-5518     C           100.00   0.10   0.27   1.00    6.75    120.000         65.430
            2     29       0.11 I-Bh-Tv-c-5518     C           100.00   0.10   0.27   1.00    4.19    120.000         65.430
            3     30       8.16 I-Bh-Tv-c-5518     C           100.00   0.10   0.27   1.00   16.18    120.000         65.430
            3     31       6.03 I-Bh-Tv-c-5518     C           100.00   0.10   0.27   1.00   15.31    120.000         65.430
            3     32       9.89 I-Bh-Tv-c-5518     C           100.00   0.10   0.27   1.00   14.52    120.000         65.430
            3     33      45.08 I-Bh-Tv-c-5518     C           100.00   0.10   0.27   1.00   14.39    120.000         65.430
            3     34       0.16 I-Bh-Tv-c-5518     C           100.00   0.10   0.27   1.00    0.07    120.000         65.430
            3     35      14.16 I-Bh-Tv-c-5518     C           100.00   0.10   0.27   1.00   10.22    120.000         65.430
            3     36       0.05 I-Bh-Tv-c-5518     C           100.00   0.10   0.27   1.00    0.07    120.000         65.430
            3     37      16.12 I-Bh-Tv-c-5518     C           100.00   0.10   0.27   1.00    7.60    120.000         65.430
            3     38       1.55 I-Bh-Tv-c-5518     C           670.00   0.10   0.27   1.00   13.64    120.000         65.430
            3     39       0.02 I-Bh-Tv-c-5518     C           670.00   0.10   0.27   1.00    0.07    120.000         65.430
            3     40       4.02 I-Bh-Tv-c-5518     C           100.00   0.10   0.27   1.00   16.88    120.000         65.430
            3     41       0.89 I-Bh-Tv-c-5518     C           100.00   0.10   0.27   1.00    8.09    120.000         65.430
            3     42       3.70 I-Bh-Tv-c-5518     C           670.00   0.10   0.27   1.00    0.07    120.000         65.430
            3     43      10.53 I-Bh-Tv-c-5518     C           100.00   0.10   0.27   1.00    9.58    120.000         65.430
            3     44       0.06 I-Bh-Tv-c-5518     C           100.00   0.10   0.27   1.00    0.07    120.000         65.430
            3     45      11.12 I-Bh-Tv-c-5518     C           100.00   0.10   0.27   1.00    7.31    120.000         65.430
            3     46       0.06 I-Bh-Tv-c-5518     C           100.00   0.10   0.27   1.00    0.07    120.000         65.430
            3     47       5.56 I-Bh-Tv-c-5518     C           100.00   0.10   0.27   1.00    4.61    120.000         65.430
            3     48       0.36 I-Bh-Tv-c-5518     C           100.00   0.10   0.27   1.00    0.07    120.000         65.430
            3     49       0.17 I-Bh-Tv-c-5518     C           100.00   0.10   0.27   1.00    4.52    120.000         65.430

         HRU Input Summary Table 3:
          Sub   HRU   Area(ha) Urban Irrig DrainTiles Pothole Pstcide Biomix Septic
            1      1     112.98                                          0.20 x
            1      2       2.55                                          0.20 x
            1      3     108.09                                          0.20 x
            1      4       0.56                                          0.20 x
            1      5      14.56                                          0.20 x
            1      6       5.70                                          0.20 x
            1      7       0.84                                          0.20 x
            1      8       0.02                                          0.20 x
            1      9       0.92                                          0.20 x
            1     10       0.59                                          0.20 x
            1     11       0.23                                          0.20 x
            1     12       0.97                                          0.20 x
            2     13      97.09                                          0.20 x
            2     14       0.53                                          0.20 x
            2     15       2.73                                          0.20 x
            2     16       7.28                                          0.20 x
            2     17       0.05                                          0.20 x
            2     18       2.63                                          0.20 x
            2     19       4.27                                          0.20 x
            2     20      10.64                                          0.20 x
            2     21       0.05                                          0.20 x
            2     22      11.86                                          0.20 x
            2     23       0.08                                          0.20 x
            2     24       2.05                                          0.20 x
            2     25       0.03                                          0.20 x
            2     26       1.22                                          0.20 x
            2     27       4.61                                          0.20 x
            2     28       2.08                                          0.20 x
            2     29       0.11                                          0.20 x
            3     30       8.16                                          0.20 x
            3     31       6.03                                          0.20 x
            3     32       9.89                                          0.20 x
            3     33      45.08                                          0.20 x
            3     34       0.16                                          0.20 x
            3     35      14.16                                          0.20 x
            3     36       0.05                                          0.20 x
            3     37      16.12                                          0.20 x
            3     38       1.55                                          0.20 x
            3     39       0.02                                          0.20 x
            3     40       4.02                                          0.20 x
            3     41       0.89                                          0.20 x
            3     42       3.70                                          0.20 x
            3     43      10.53                                          0.20 x
            3     44       0.06                                          0.20 x
            3     45      11.12                                          0.20 x
            3     46       0.06                                          0.20 x
            3     47       5.56                                          0.20 x
            3     48       0.36                                          0.20 x
            3     49       0.17                                          0.20 x

         HRU Input Summary Table 4 (Groundwater):
          Sub   HRU   Area(ha) GWdelay(days), GWalpha(days) GWQmin(mm) GWrevap Revapmin(mm) Deepfr NO3(ppm) SolP(ppm)
            1      1     112.98        31.000         0.048   1000.000   0.020      750.000  0.050    0.000     0.000
            1      2       2.55        31.000         0.048   1000.000   0.020      750.000  0.050    0.000     0.000
            1      3     108.09        31.000         0.048   1000.000   0.020      750.000  0.050    0.000     0.000
            1      4       0.56        31.000         0.048   1000.000   0.020      750.000  0.050    0.000     0.000
            1      5      14.56        31.000         0.048   1000.000   0.020      750.000  0.050    0.000     0.000
            1      6       5.70        31.000         0.048   1000.000   0.020      750.000  0.050    0.000     0.000
            1      7       0.84        31.000         0.048   1000.000   0.020      750.000  0.050    0.000     0.000
            1      8       0.02        31.000         0.048   1000.000   0.020      750.000  0.050    0.000     0.000
            1      9       0.92        31.000         0.048   1000.000   0.020      750.000  0.050    0.000     0.000
            1     10       0.59        31.000         0.048   1000.000   0.020      750.000  0.050    0.000     0.000
            1     11       0.23        31.000         0.048   1000.000   0.020      750.000  0.050    0.000     0.000
            1     12       0.97        31.000         0.048   1000.000   0.020      750.000  0.050    0.000     0.000
            2     13      97.09        31.000         0.048   1000.000   0.020      750.000  0.050    0.000     0.000
            2     14       0.53        31.000         0.048   1000.000   0.020      750.000  0.050    0.000     0.000
            2     15       2.73        31.000         0.048   1000.000   0.020      750.000  0.050    0.000     0.000
            2     16       7.28        31.000         0.048   1000.000   0.020      750.000  0.050    0.000     0.000
            2     17       0.05        31.000         0.048   1000.000   0.020      750.000  0.050    0.000     0.000
            2     18       2.63        31.000         0.048   1000.000   0.020      750.000  0.050    0.000     0.000
            2     19       4.27        31.000         0.048   1000.000   0.020      750.000  0.050    0.000     0.000
            2     20      10.64        31.000         0.048   1000.000   0.020      750.000  0.050    0.000     0.000
            2     21       0.05        31.000         0.048   1000.000   0.020      750.000  0.050    0.000     0.000
            2     22      11.86        31.000         0.048   1000.000   0.020      750.000  0.050    0.000     0.000
            2     23       0.08        31.000         0.048   1000.000   0.020      750.000  0.050    0.000     0.000
            2     24       2.05        31.000         0.048   1000.000   0.020      750.000  0.050    0.000     0.000
            2     25       0.03        31.000         0.048   1000.000   0.020      750.000  0.050    0.000     0.000
            2     26       1.22        31.000         0.048   1000.000   0.020      750.000  0.050    0.000     0.000
            2     27       4.61        31.000         0.048   1000.000   0.020      750.000  0.050    0.000     0.000
            2     28       2.08        31.000         0.048   1000.000   0.020      750.000  0.050    0.000     0.000
            2     29       0.11        31.000         0.048   1000.000   0.020      750.000  0.050    0.000     0.000
            3     30       8.16        31.000         0.048   1000.000   0.020      750.000  0.050    0.000     0.000
            3     31       6.03        31.000         0.048   1000.000   0.020      750.000  0.050    0.000     0.000
            3     32       9.89        31.000         0.048   1000.000   0.020      750.000  0.050    0.000     0.000
            3     33      45.08        31.000         0.048   1000.000   0.020      750.000  0.050    0.000     0.000
            3     34       0.16        31.000         0.048   1000.000   0.020      750.000  0.050    0.000     0.000
            3     35      14.16        31.000         0.048   1000.000   0.020      750.000  0.050    0.000     0.000
            3     36       0.05        31.000         0.048   1000.000   0.020      750.000  0.050    0.000     0.000
            3     37      16.12        31.000         0.048   1000.000   0.020      750.000  0.050    0.000     0.000
            3     38       1.55        31.000         0.048   1000.000   0.020      750.000  0.050    0.000     0.000
            3     39       0.02        31.000         0.048   1000.000   0.020      750.000  0.050    0.000     0.000
            3     40       4.02        31.000         0.048   1000.000   0.020      750.000  0.050    0.000     0.000
            3     41       0.89        31.000         0.048   1000.000   0.020      750.000  0.050    0.000     0.000
            3     42       3.70        31.000         0.048   1000.000   0.020      750.000  0.050    0.000     0.000
            3     43      10.53        31.000         0.048   1000.000   0.020      750.000  0.050    0.000     0.000
            3     44       0.06        31.000         0.048   1000.000   0.020      750.000  0.050    0.000     0.000
            3     45      11.12        31.000         0.048   1000.000   0.020      750.000  0.050    0.000     0.000
            3     46       0.06        31.000         0.048   1000.000   0.020      750.000  0.050    0.000     0.000
            3     47       5.56        31.000         0.048   1000.000   0.020      750.000  0.050    0.000     0.000
            3     48       0.36        31.000         0.048   1000.000   0.020      750.000  0.050    0.000     0.000
            3     49       0.17        31.000         0.048   1000.000   0.020      750.000  0.050    0.000     0.000

         Tributary/Main Channel Characteristics
              |--------------Tributary--------------------|---------------------Main---------------------------|
          Sub  Length(km) Slope Width(m) Cond(mm/hr)     N Length(km) Slope Width(m) Depth(m) Cond(mm/hr)     N
            1        3.15 0.204     2.22      0.0000 0.014       2.43 0.062     3.52     0.25      0.0000 0.014
            2        2.20 0.232     1.63      0.0000 0.014       0.66 0.109     1.63     0.15      0.0000 0.014
            3        2.52 0.198     1.56      0.0000 0.014       0.92 0.085     1.56     0.15      0.0000 0.014
