1
    SWAT Dec 23 2016    VER 2016/Rev 664                                                                 0/ 0/   0      0: 0: 0

    General Input/Output section (file.cio):                                        
    5/31/2025 12:00:00 AM ARCGIS-SWAT interface AV                                  
                                                                                    
         Number of years in run:   10
         Area of watershed:        5.330 km2
1
    SWAT Dec 23 2016    VER 2016/Rev 664                                            

    General Input/Output section (file.cio):                                        
    5/31/2025 12:00:00 AM ARCGIS-SWAT interface AV                                  
                                                                                    
Annual Summary for Watershed in year    1 of simulation

UNIT                                    PERCO    TILE                           WATER     SED     NO3     NO3     NO3     NO3        N       P       P
TIME     PREC    SURQ    LATQ     GWQ    LATE       Q     SW       ET     PET   YIELD   YIELD    SURQ    LATQ    PERC    CROP  ORGANIC SOLUBLE ORGANIC TILENO3
         (mm)    (mm)    (mm)    (mm)    (mm)    (mm)    (mm)    (mm)    (mm)    (mm)   (t/ha)  ------------------(kg nutrient/ha)-------------------- (kg/ha)
    3  151.27   11.48   13.46    0.12    5.31    0.00  104.68    2.50    4.32   25.05   50.78    0.01    0.25    0.78    0.00    71.29    0.00    8.73    0.00
    4   64.59    6.23    8.95    3.99   10.76    0.00  108.85   10.40   15.60   19.24   34.39    0.00    0.16    1.51    0.00    21.96    0.00    2.69    0.00
    5    9.50    0.36    2.24    6.14    2.50    0.00  109.86   10.38   16.21    8.89    1.17    0.00    0.03    0.34    0.00     2.59    0.00    0.32    0.00
    6    8.00    0.01    0.77    4.05    0.72    0.00  106.79    9.40   15.11    4.98    0.02    0.00    0.01    0.10    0.00     0.02    0.00    0.00    0.00
    7    5.90    0.00    0.18    2.27    0.00    0.00  103.37   10.09   18.94    2.60    0.00    0.00    0.00    0.00    0.00     0.00    0.00    0.00    0.00
    8   19.00    0.23    1.68    1.04    1.48    0.00  105.67    7.32   12.01    3.07    0.89    0.01    0.02    0.21    0.00     0.67    0.00    0.08    0.00
    9   23.10    0.50    3.09    1.38    3.81    0.00  107.33    5.87    9.53    5.08    3.43    0.03    0.05    0.54    0.00     1.68    0.00    0.21    0.00
   10   56.99    3.40    6.86    2.75    9.75    0.00  113.88    5.14    8.57   13.13   10.34    0.04    0.11    1.32    0.01     5.94    0.00    0.73    0.00
   11  127.07   10.56   15.49    7.18   21.59    0.00  127.57    2.93    5.38   33.41   33.99    0.00    0.19    2.51    0.05    13.08    0.00    1.60    0.00
   12  192.56   28.32   21.56   14.97   31.03    0.00  146.62    2.59    4.81   65.20  108.08    0.00    0.18    2.69    0.00    25.76    0.00    3.16    0.00

 1981  657.96   61.09   74.30   43.90   86.93    0.00  146.62   66.63  110.49  180.66  243.07    0.10    0.99    9.99    0.06   143.00    0.01   17.52    0.00
1
    SWAT Dec 23 2016    VER 2016/Rev 664                                            

    General Input/Output section (file.cio):                                        
    5/31/2025 12:00:00 AM ARCGIS-SWAT interface AV                                  
                                                                                    
Annual Summary for Watershed in year    2 of simulation

UNIT                                    PERCO    TILE                           WATER     SED     NO3     NO3     NO3     NO3        N       P       P
TIME     PREC    SURQ    LATQ     GWQ    LATE       Q     SW       ET     PET   YIELD   YIELD    SURQ    LATQ    PERC    CROP  ORGANIC SOLUBLE ORGANIC TILENO3
         (mm)    (mm)    (mm)    (mm)    (mm)    (mm)    (mm)    (mm)    (mm)    (mm)   (t/ha)  ------------------(kg nutrient/ha)-------------------- (kg/ha)
    1  204.66   29.78   25.14   22.70   35.13    0.00  170.07    1.60    2.96   78.22   90.47    0.00    0.14    2.07    0.00    26.24    0.00    3.21    0.00
    2  317.03   51.74   38.65   29.78   62.05    0.00  182.55    1.07    1.87  121.03  189.13    0.00    0.23    3.44    0.00    27.43    0.00    3.36    0.00
    3  137.47   44.62   42.89   48.15   74.32    0.00  183.91    6.57   11.26  137.06  179.46    0.00    0.29    3.99    0.00     9.69    0.00    1.19    0.00
    4   72.88   23.82   26.49   57.02   44.27    0.00  184.10    7.95   11.12  109.17   83.02    0.00    0.17    2.19    0.00     1.72    0.00    0.21    0.00
    5   16.60    8.06   12.15   49.42   24.21    0.00  181.53    8.93   11.64   71.69   24.14    0.00    0.10    1.34    0.00     0.19    0.00    0.02    0.00
    6    8.10    1.04    7.17   32.95   12.52    0.00  178.11   11.39   16.90   43.04    3.61    0.00    0.05    0.58    0.00     0.00    0.00    0.00    0.00
    7    7.90    0.95    6.99   22.16   12.90    0.00  175.25    9.62   14.73   31.80    4.31    0.00    0.04    0.54    0.00     0.00    0.00    0.00    0.00
    8   13.80    0.55    7.49   16.04   13.00    0.00  173.46    7.97   11.49   25.53    1.88    0.00    0.04    0.48    0.00     0.01    0.00    0.00    0.00
    9   23.00    1.14    7.76   13.31   12.99    0.00  172.44    7.35   10.48   23.42    4.40    0.00    0.04    0.45    0.00     0.03    0.00    0.00    0.00
   10   79.18    6.04   12.02   13.71   19.85    0.00  178.62    3.23    4.75   32.88   25.31    0.00    0.05    0.62    0.01     0.15    0.00    0.02    0.00
   11  132.37   19.12   24.18   18.43   43.50    0.00  184.91    2.09    3.53   62.78   52.54    0.00    0.11    1.45    0.02     0.37    0.00    0.05    0.00
   12   88.08   27.85   29.46   31.51   54.60    0.00  185.67    2.03    3.69   90.09   83.66    0.00    0.14    1.96    0.00     0.60    0.00    0.07    0.00

 1982 1101.07  214.70  240.39  355.16  409.34    0.00  185.67   69.82  104.40  826.72  741.94    0.01    1.41   19.10    0.04    66.43    0.00    8.14    0.00
1
    SWAT Dec 23 2016    VER 2016/Rev 664                                            

    General Input/Output section (file.cio):                                        
    5/31/2025 12:00:00 AM ARCGIS-SWAT interface AV                                  
                                                                                    
Annual Summary for Watershed in year    3 of simulation

UNIT                                    PERCO    TILE                           WATER     SED     NO3     NO3     NO3     NO3        N       P       P
TIME     PREC    SURQ    LATQ     GWQ    LATE       Q     SW       ET     PET   YIELD   YIELD    SURQ    LATQ    PERC    CROP  ORGANIC SOLUBLE ORGANIC TILENO3
         (mm)    (mm)    (mm)    (mm)    (mm)    (mm)    (mm)    (mm)    (mm)    (mm)   (t/ha)  ------------------(kg nutrient/ha)-------------------- (kg/ha)
    1  156.17   63.62   39.07   44.12   72.00    0.00  185.67    1.83    3.34  148.40  213.67    0.00    0.17    2.24    0.00    26.74    0.00    3.28    0.00
    2  192.56   71.40   38.26   51.11   70.59    0.00  185.67    3.38    6.34  162.54  204.34    0.00    0.11    1.54    0.00     4.23    0.00    0.52    0.00
    3  247.45   92.77   53.20   69.32   95.03    0.00  185.70    2.45    3.91  217.60  325.53    0.00    0.11    1.52    0.00     0.75    0.00    0.09    0.00
    4  112.18   57.23   44.29   76.43   73.77    0.00  185.37    6.27    8.56  180.97  226.33    0.00    0.06    0.76    0.00     0.16    0.00    0.02    0.00
    5   21.90   12.08   14.70   70.06   27.99    0.00  183.22    8.85   11.48   99.97   39.12    0.00    0.02    0.24    0.00     0.00    0.00    0.00    0.00
    6   15.70    1.17    8.84   46.33   15.65    0.00  180.81    8.72   11.41   59.16    3.91    0.00    0.01    0.14    0.00     0.00    0.00    0.00    0.00
    7   16.20    2.54   12.76   31.60   22.90    0.00  178.25    8.97   12.03   49.42    9.34    0.00    0.02    0.23    0.00     0.00    0.00    0.00    0.00
    8   19.20    1.33    9.97   24.31   17.66    0.00  176.39    7.34    9.52   37.78    5.28    0.00    0.02    0.20    0.00     0.00    0.00    0.00    0.00
    9   31.99    1.98    8.86   19.19   16.39    0.00  176.56    6.14    8.44   31.83    9.55    0.00    0.02    0.20    0.00     0.00    0.00    0.00    0.00
   10   53.09    4.70   10.09   16.87   16.01    0.00  179.91    4.54    6.98   33.26   15.21    0.00    0.02    0.22    0.00     0.01    0.00    0.00    0.00
   11   57.99    7.97   10.17   15.51   17.89    0.00  184.64    4.49    7.83   35.00   24.55    0.00    0.02    0.27    0.00     0.01    0.00    0.00    0.00
   12  230.35   43.79   35.83   22.54   67.80    0.00  185.66    1.80    3.25  103.47  129.03    0.00    0.11    1.47    0.00     0.09    0.00    0.01    0.00

 1983 1154.76  360.58  286.03  487.39  513.69    0.00  185.66   64.79   93.09 1159.38 1205.85    0.00    0.70    9.05    0.00    32.01    0.00    3.92    0.00
1
    SWAT Dec 23 2016    VER 2016/Rev 664                                            

    General Input/Output section (file.cio):                                        
    5/31/2025 12:00:00 AM ARCGIS-SWAT interface AV                                  
                                                                                    
Annual Summary for Watershed in year    4 of simulation

UNIT                                    PERCO    TILE                           WATER     SED     NO3     NO3     NO3     NO3        N       P       P
TIME     PREC    SURQ    LATQ     GWQ    LATE       Q     SW       ET     PET   YIELD   YIELD    SURQ    LATQ    PERC    CROP  ORGANIC SOLUBLE ORGANIC TILENO3
         (mm)    (mm)    (mm)    (mm)    (mm)    (mm)    (mm)    (mm)    (mm)    (mm)   (t/ha)  ------------------(kg nutrient/ha)-------------------- (kg/ha)
    1  221.45   57.77   43.79   44.32   78.52    0.00  185.68    2.05    3.80  147.54  186.92    0.00    0.09    1.19    0.00    24.03    0.00    2.94    0.00
    2  422.11  189.80   66.29   62.21  118.13    0.00  185.70    1.47    2.65  320.11  639.85    0.00    0.09    1.16    0.00     5.30    0.00    0.65    0.00
    3  240.15  162.39   67.84   92.74  116.82    0.00  185.69    4.61    8.03  326.14  479.49    0.00    0.06    0.82    0.00     1.22    0.00    0.15    0.00
    4   86.78   61.88   42.28   95.16   73.33    0.00  185.11    6.34    9.08  202.86  212.16    0.00    0.04    0.44    0.00     0.11    0.00    0.01    0.00
    5   34.99   26.64   29.33   84.95   49.12    0.00  183.02   11.81   16.12  144.75   81.36    0.00    0.02    0.24    0.00     0.02    0.00    0.00    0.00
    6   25.29    1.54    7.46   58.09   13.50    0.00  181.57    7.80    9.85   70.54    5.24    0.00    0.01    0.09    0.00     0.00    0.00    0.00    0.00
    7    7.60    0.30    3.33   34.68    5.96    0.00  178.65    9.81   14.14   41.34    1.13    0.00    0.01    0.05    0.00     0.00    0.00    0.00    0.00
    8   16.00    0.84    6.77   19.15   12.00    0.00  176.79    8.51   12.37   29.21    4.19    0.00    0.01    0.12    0.00     0.00    0.00    0.00    0.00
    9   15.60    1.10    6.11   13.15   11.78    0.00  174.92    8.21   11.69   22.27    3.60    0.00    0.01    0.14    0.00     0.01    0.00    0.00    0.00
   10   84.48   10.58   15.95   13.50   28.12    0.00  180.72    5.24    8.13   41.67   33.14    0.00    0.04    0.38    0.00     0.10    0.00    0.01    0.00
   11  136.97   23.30   25.85   20.40   44.88    0.00  185.65    2.79    5.12   70.92   82.42    0.00    0.05    0.62    0.06     0.10    0.00    0.01    0.00
   12  189.36   53.97   44.17   38.21   78.19    0.00  185.64    1.56    2.83  138.07  127.37    0.00    0.08    1.05    0.03     0.19    0.00    0.02    0.00

 1984 1480.79  590.11  359.18  576.55  630.34    0.00  185.64   70.18  103.82 1555.43 1856.89    0.00    0.50    6.29    0.09    31.09    0.00    3.82    0.00
1
    SWAT Dec 23 2016    VER 2016/Rev 664                                            

    General Input/Output section (file.cio):                                        
    5/31/2025 12:00:00 AM ARCGIS-SWAT interface AV                                  
                                                                                    
Annual Summary for Watershed in year    5 of simulation

UNIT                                    PERCO    TILE                           WATER     SED     NO3     NO3     NO3     NO3        N       P       P
TIME     PREC    SURQ    LATQ     GWQ    LATE       Q     SW       ET     PET   YIELD   YIELD    SURQ    LATQ    PERC    CROP  ORGANIC SOLUBLE ORGANIC TILENO3
         (mm)    (mm)    (mm)    (mm)    (mm)    (mm)    (mm)    (mm)    (mm)    (mm)   (t/ha)  ------------------(kg nutrient/ha)-------------------- (kg/ha)
    1  168.47   60.79   45.89   57.52   83.61    0.00  185.68    1.24    2.23  166.29  183.23    0.00    0.07    0.89    0.00    24.41    0.00    2.99    0.00
    2  204.86   71.06   44.55   62.39   79.95    0.00  185.69    1.87    3.43  180.23  223.31    0.00    0.05    0.64    0.00     3.51    0.00    0.43    0.00
    3  188.26   65.94   48.68   76.53   85.71    0.00  185.69    5.68    9.45  194.10  203.72    0.00    0.05    0.59    0.00     1.03    0.00    0.13    0.00
    4   74.08   38.96   41.96   76.65   69.88    0.00  185.56    5.60    7.66  160.87  119.05    0.00    0.03    0.40    0.00     0.22    0.00    0.03    0.00
    5   21.50   18.06   24.79   72.20   40.95    0.00  183.83    7.68   10.01  118.47   54.93    0.00    0.02    0.21    0.00     0.03    0.00    0.00    0.00
    6   15.20    0.23    4.16   48.56    8.01    0.00  181.49    7.90   10.05   56.01    0.82    0.00    0.01    0.06    0.00     0.00    0.00    0.00    0.00
    7    8.60    0.24    3.12   27.77    6.15    0.00  178.76    8.01   11.35   33.78    1.00    0.00    0.01    0.05    0.00     0.00    0.00    0.00    0.00
    8   14.90    1.59    7.94   16.31   14.69    0.00  177.09    7.71   11.02   27.97    6.97    0.00    0.02    0.15    0.00     0.00    0.00    0.00    0.00
    9   26.39    1.11    7.02   13.26   12.05    0.00  176.60    8.71   12.32   23.08    4.40    0.00    0.02    0.14    0.00     0.01    0.00    0.00    0.00
   10   44.99    4.94    8.04   12.61   15.58    0.00  178.03    6.27    9.50   27.03   18.94    0.00    0.02    0.21    0.00     0.06    0.00    0.01    0.00
   11   69.79   15.66   17.82   14.66   30.52    0.00  183.79    4.76    8.36   49.40   45.65    0.00    0.04    0.44    0.02     0.22    0.00    0.03    0.00
   12  163.77   35.58   36.18   26.69   65.63    0.00  185.69    1.35    2.38   99.73  132.44    0.00    0.07    0.98    0.00     0.26    0.00    0.03    0.00

 1985 1000.79  314.18  290.16  505.17  512.72    0.00  185.69   66.78   97.75 1136.94  994.46    0.00    0.39    4.77    0.02    29.75    0.00    3.65    0.00
1
    SWAT Dec 23 2016    VER 2016/Rev 664                                            

    General Input/Output section (file.cio):                                        
    5/31/2025 12:00:00 AM ARCGIS-SWAT interface AV                                  
                                                                                    
Annual Summary for Watershed in year    6 of simulation

UNIT                                    PERCO    TILE                           WATER     SED     NO3     NO3     NO3     NO3        N       P       P
TIME     PREC    SURQ    LATQ     GWQ    LATE       Q     SW       ET     PET   YIELD   YIELD    SURQ    LATQ    PERC    CROP  ORGANIC SOLUBLE ORGANIC TILENO3
         (mm)    (mm)    (mm)    (mm)    (mm)    (mm)    (mm)    (mm)    (mm)    (mm)   (t/ha)  ------------------(kg nutrient/ha)-------------------- (kg/ha)
    1  297.34   97.34   54.27   48.75   99.03    0.00  185.69    1.73    3.15  201.99  319.15    0.00    0.08    1.10    0.00    27.73    0.00    3.40    0.00
    2  330.03  155.39   61.60   66.60  107.60    0.00  185.70    1.17    2.04  285.62  528.92    0.00    0.05    0.72    0.00     1.83    0.00    0.23    0.00
    3  175.96   98.42   57.91   92.61   98.54    0.00  185.32    4.62    7.72  252.22  323.11    0.00    0.04    0.53    0.00     0.26    0.00    0.03    0.00
    4  131.67   66.24   43.12   89.69   76.38    0.00  185.70    7.42   10.04  202.40  267.12    0.00    0.03    0.40    0.00     0.17    0.00    0.02    0.00
    5   36.59   29.90   34.51   82.16   56.29    0.00  182.65   12.08   16.68  150.42   88.21    0.00    0.02    0.27    0.00     0.03    0.00    0.00    0.00
    6   12.40    2.57    9.24   60.12   17.20    0.00  179.90   10.40   14.74   75.38    8.30    0.00    0.01    0.10    0.00     0.00    0.00    0.00    0.00
    7   19.00    0.68    6.57   38.37   11.20    0.00  177.31    9.69   13.67   48.70    2.85    0.00    0.01    0.08    0.00     0.00    0.00    0.00    0.00
    8   29.69    3.21   10.22   23.30   18.21    0.00  175.67    9.00   12.76   39.27   20.64    0.00    0.02    0.17    0.00     0.01    0.00    0.00    0.00
    9   31.29    1.46    8.55   18.32   15.26    0.00  175.68    8.45   11.81   30.39    6.62    0.00    0.02    0.16    0.00     0.02    0.00    0.00    0.00
   10   50.49    4.20   12.17   17.26   21.44    0.00  179.56    4.20    6.42   35.43   17.69    0.00    0.02    0.25    0.00     0.06    0.00    0.01    0.00
   11   70.49   11.95   12.76   19.17   24.13    0.00  185.53    2.08    3.49   45.43   31.91    0.00    0.03    0.29    0.00     0.07    0.00    0.01    0.00
   12  159.57   36.21   30.23   23.51   58.11    0.00  185.68    2.16    3.94   91.41  118.69    0.00    0.06    0.86    0.00     0.11    0.00    0.01    0.00

 1986 1344.52  507.56  341.15  579.86  603.39    0.00  185.68   73.01  106.47 1458.67 1733.20    0.00    0.40    4.94    0.00    30.29    0.00    3.71    0.00
1
    SWAT Dec 23 2016    VER 2016/Rev 664                                            

    General Input/Output section (file.cio):                                        
    5/31/2025 12:00:00 AM ARCGIS-SWAT interface AV                                  
                                                                                    
Annual Summary for Watershed in year    7 of simulation

UNIT                                    PERCO    TILE                           WATER     SED     NO3     NO3     NO3     NO3        N       P       P
TIME     PREC    SURQ    LATQ     GWQ    LATE       Q     SW       ET     PET   YIELD   YIELD    SURQ    LATQ    PERC    CROP  ORGANIC SOLUBLE ORGANIC TILENO3
         (mm)    (mm)    (mm)    (mm)    (mm)    (mm)    (mm)    (mm)    (mm)    (mm)   (t/ha)  ------------------(kg nutrient/ha)-------------------- (kg/ha)
    1  261.75   98.43   52.91   45.52   96.75    0.00  185.71    2.58    4.92  198.48  341.86    0.00    0.08    1.03    0.00    28.17    0.00    3.45    0.00
    2  229.55  118.75   53.05   63.60   94.10    0.00  185.68    2.34    4.10  237.68  360.20    0.00    0.05    0.67    0.00     1.19    0.00    0.15    0.00
    3   90.68   38.56   42.72   81.24   72.41    0.00  184.66    8.18   12.67  165.49  128.66    0.00    0.03    0.42    0.00     0.07    0.00    0.01    0.00
    4   34.99   18.35   21.15   71.13   35.88    0.00  183.51    9.01   12.48  113.70   65.95    0.00    0.02    0.19    0.00     0.02    0.00    0.00    0.00
    5   10.60    1.97    8.86   51.26   16.51    0.00  180.51    9.79   14.06   65.05    6.55    0.00    0.01    0.11    0.00     0.00    0.00    0.00    0.00
    6    8.70    1.17    7.62   30.95   13.53    0.00  178.24    9.67   14.63   42.23    4.28    0.00    0.01    0.11    0.00     0.00    0.00    0.00    0.00
    7   11.70    0.47    7.02   20.41   12.35    0.00  175.49   10.59   15.90   30.05    1.65    0.00    0.01    0.13    0.00     0.00    0.00    0.00    0.00
    8   17.90    1.48    9.56   16.32   16.91    0.00  173.09   10.15   14.87   29.15    5.90    0.00    0.02    0.19    0.00     0.00    0.00    0.00    0.00
    9   21.70    1.62    6.14   13.24   12.42    0.00  171.23   10.63   15.68   22.47    6.21    0.00    0.01    0.15    0.00     0.00    0.00    0.00    0.00
   10   41.19    4.27   11.03   14.20   19.01    0.00  173.81    4.61    7.29   30.82   18.70    0.00    0.03    0.26    0.00     0.02    0.00    0.00    0.00
   11   92.38    9.87   15.06   15.99   24.79    0.00  182.15    3.09    5.40   42.08   30.05    0.00    0.03    0.37    0.00     0.03    0.00    0.00    0.00
   12  122.87   20.92   21.62   22.58   42.64    0.00  185.65    1.41    2.48   66.32   58.36    0.00    0.05    0.69    0.01     0.02    0.00    0.00    0.00

 1987  944.00  315.86  256.73  446.44  457.31    0.00  185.65   82.04  124.47 1043.52 1028.36    0.00    0.36    4.33    0.01    29.52    0.00    3.62    0.00
1
    SWAT Dec 23 2016    VER 2016/Rev 664                                            

    General Input/Output section (file.cio):                                        
    5/31/2025 12:00:00 AM ARCGIS-SWAT interface AV                                  
                                                                                    
Annual Summary for Watershed in year    8 of simulation

UNIT                                    PERCO    TILE                           WATER     SED     NO3     NO3     NO3     NO3        N       P       P
TIME     PREC    SURQ    LATQ     GWQ    LATE       Q     SW       ET     PET   YIELD   YIELD    SURQ    LATQ    PERC    CROP  ORGANIC SOLUBLE ORGANIC TILENO3
         (mm)    (mm)    (mm)    (mm)    (mm)    (mm)    (mm)    (mm)    (mm)    (mm)   (t/ha)  ------------------(kg nutrient/ha)-------------------- (kg/ha)
    1  189.26   47.58   42.18   35.82   77.15    0.00  185.67    2.40    4.54  126.99  158.38    0.00    0.08    1.03    0.00    23.08    0.00    2.83    0.00
    2  180.46   74.15   44.94   52.97   79.65    0.00  185.57    3.15    5.56  173.84  248.39    0.00    0.06    0.74    0.00     5.04    0.00    0.62    0.00
    3  138.97   43.98   42.45   66.74   74.98    0.00  185.66    4.93    7.80  155.42  149.88    0.00    0.04    0.56    0.00     0.52    0.00    0.06    0.00
    4   85.98   28.43   35.65   67.43   59.30    0.00  184.96    7.27    9.85  134.24   92.94    0.00    0.03    0.38    0.00     0.12    0.00    0.01    0.00
    5   23.50    9.20   12.21   58.80   24.24    0.00  182.46   10.84   14.70   83.01   26.59    0.00    0.01    0.16    0.00     0.00    0.00    0.00    0.00
    6    7.20    1.27    6.35   38.24   11.69    0.00  179.59   11.48   17.26   48.33    4.84    0.00    0.01    0.09    0.00     0.00    0.00    0.00    0.00
    7    7.10    1.21    8.03   25.31   14.38    0.00  176.00   11.59   18.08   36.74    4.38    0.00    0.01    0.13    0.00     0.00    0.00    0.00    0.00
    8   12.80    1.60   10.70   18.73   18.70    0.00  174.16    9.38   14.03   32.88    5.96    0.00    0.02    0.20    0.00     0.00    0.00    0.00    0.00
    9   19.70    0.86    6.15   15.97   12.00    0.00  173.43    5.86    7.96   24.51    3.70    0.00    0.01    0.14    0.00     0.00    0.00    0.00    0.00
   10   40.39    2.48   10.22   15.03   17.59    0.00  176.29    3.75    5.88   29.09    6.70    0.00    0.02    0.23    0.01     0.01    0.00    0.00    0.00
   11   71.69    5.40   10.69   15.12   17.14    0.00  182.36    2.96    4.66   32.40   16.53    0.00    0.02    0.25    0.00     0.03    0.00    0.00    0.00
   12  147.27   16.47   22.25   17.61   41.58    0.00  185.65    2.92    5.42   57.47   57.83    0.00    0.05    0.66    0.04     0.08    0.00    0.01    0.00

 1988  924.31  232.64  251.82  427.77  448.38    0.00  185.65   76.53  115.75  934.92  776.13    0.00    0.37    4.58    0.06    28.89    0.00    3.54    0.00
1
    SWAT Dec 23 2016    VER 2016/Rev 664                                            

    General Input/Output section (file.cio):                                        
    5/31/2025 12:00:00 AM ARCGIS-SWAT interface AV                                  
                                                                                    
Annual Summary for Watershed in year    9 of simulation

UNIT                                    PERCO    TILE                           WATER     SED     NO3     NO3     NO3     NO3        N       P       P
TIME     PREC    SURQ    LATQ     GWQ    LATE       Q     SW       ET     PET   YIELD   YIELD    SURQ    LATQ    PERC    CROP  ORGANIC SOLUBLE ORGANIC TILENO3
         (mm)    (mm)    (mm)    (mm)    (mm)    (mm)    (mm)    (mm)    (mm)    (mm)   (t/ha)  ------------------(kg nutrient/ha)-------------------- (kg/ha)
    1  243.55   73.58   47.54   34.94   86.35    0.00  185.67    2.52    4.73  157.40  231.81    0.00    0.08    1.08    0.00    25.24    0.00    3.09    0.00
    2  280.84  124.37   55.91   54.74   98.70    0.00  185.68    2.94    5.55  236.65  376.80    0.00    0.06    0.76    0.00     3.04    0.00    0.37    0.00
    3  221.95   92.36   56.79   81.05   98.99    0.00  185.68    2.88    5.27  232.80  271.64    0.00    0.05    0.60    0.00     0.36    0.00    0.05    0.00
    4   64.09   40.28   40.52   83.45   67.80    0.00  185.54    5.81    8.04  167.39  122.69    0.00    0.03    0.35    0.00     0.12    0.00    0.02    0.00
    5   14.00   14.78   21.62   75.25   35.66    0.00  182.50    9.55   12.61  114.99   48.23    0.00    0.02    0.18    0.00     0.01    0.00    0.00    0.00
    6   10.30    0.57    4.28   48.28    7.51    0.00  179.69   10.81   16.44   56.11    2.34    0.00    0.00    0.05    0.00     0.00    0.00    0.00    0.00
    7    5.90    0.65    3.36   26.64    6.43    0.00  176.73   12.45   20.35   33.22    2.55    0.00    0.01    0.06    0.00     0.00    0.00    0.00    0.00
    8   13.10    0.61    6.69   15.09   11.51    0.00  174.43    9.09   13.52   24.45    2.78    0.00    0.01    0.12    0.00     0.00    0.00    0.00    0.00
    9   20.30    0.45    7.74   11.55   12.93    0.00  173.84    6.90    9.57   21.36    1.63    0.00    0.02    0.16    0.00     0.02    0.00    0.00    0.00
   10   76.08    6.22   11.80   12.93   21.16    0.00  179.68    4.34    6.10   32.36   20.68    0.00    0.03    0.28    0.01     0.05    0.00    0.01    0.00
   11   79.78   14.59   17.88   18.19   33.27    0.00  185.17    2.81    5.06   51.93   52.15    0.00    0.04    0.46    0.00     0.23    0.00    0.03    0.00
   12   50.69    8.86   17.43   24.65   31.37    0.00  185.65    4.16    7.71   52.28   25.85    0.00    0.04    0.47    0.00     0.23    0.00    0.03    0.00

 1989 1080.58  377.31  291.55  486.76  511.67    0.00  185.65   74.26  114.94 1180.96 1159.15    0.00    0.37    4.55    0.01    29.31    0.00    3.59    0.00
1
    SWAT Dec 23 2016    VER 2016/Rev 664                                            

    General Input/Output section (file.cio):                                        
    5/31/2025 12:00:00 AM ARCGIS-SWAT interface AV                                  
                                                                                    
Annual Summary for Watershed in year   10 of simulation

UNIT                                    PERCO    TILE                           WATER     SED     NO3     NO3     NO3     NO3        N       P       P
TIME     PREC    SURQ    LATQ     GWQ    LATE       Q     SW       ET     PET   YIELD   YIELD    SURQ    LATQ    PERC    CROP  ORGANIC SOLUBLE ORGANIC TILENO3
         (mm)    (mm)    (mm)    (mm)    (mm)    (mm)    (mm)    (mm)    (mm)    (mm)   (t/ha)  ------------------(kg nutrient/ha)-------------------- (kg/ha)
    1  131.17   36.22   37.25   31.88   69.13    0.00  185.66    1.59    2.91  106.77  112.53    0.00    0.07    0.96    0.00    20.85    0.00    2.55    0.00
    2   78.68   16.94   23.27   41.26   41.77    0.00  185.66    3.65    6.19   83.04   53.83    0.00    0.04    0.46    0.00     2.09    0.00    0.26    0.00
    3   67.39   15.77   25.28   47.75   43.21    0.00  185.62    6.61    9.87   90.76   49.56    0.00    0.03    0.42    0.00     0.93    0.00    0.11    0.00
    4   55.39   10.37   18.59   41.89   33.12    0.00  184.39    8.05   11.88   72.81   36.88    0.00    0.03    0.32    0.00     0.49    0.00    0.06    0.00
    5   20.40    2.62   10.96   35.25   19.60    0.00  180.74   12.43   17.28   50.79    8.83    0.00    0.02    0.18    0.00     0.02    0.00    0.00    0.00
    6   19.60    0.73    6.71   24.69   11.45    0.00  179.25    8.74   11.85   33.84    2.80    0.00    0.01    0.12    0.00     0.00    0.00    0.00    0.00
    7   11.30    1.01    6.52   17.59   11.97    0.00  176.65    9.88   14.14   26.65    3.95    0.00    0.01    0.14    0.00     0.00    0.00    0.00    0.00
    8   16.10    0.92    8.47   13.81   15.16    0.00  174.79    7.52   10.96   24.51    4.31    0.00    0.02    0.21    0.00     0.02    0.00    0.00    0.00
    9   23.60    0.61    9.62   13.88   16.32    0.00  174.25    5.93    7.40   25.24    2.05    0.00    0.02    0.23    0.00     0.01    0.00    0.00    0.00
   10   61.39    4.48   12.13   15.49   20.43    0.00  179.27    3.94    5.57   33.16   13.39    0.00    0.03    0.30    0.00     0.13    0.00    0.02    0.00
   11   80.48   12.19   12.63   12.72   23.11    0.00  185.30    2.61    4.67   38.26   38.83    0.00    0.03    0.35    0.00     0.27    0.00    0.03    0.00

 1990  565.48  101.86  171.43  296.21  305.26    0.00  185.30   70.95  102.74  585.82  326.95    0.00    0.30    3.69    0.00    24.81    0.00    3.04    0.00
1
    SWAT Dec 23 2016    VER 2016/Rev 664                                            

    General Input/Output section (file.cio):                                        
    5/31/2025 12:00:00 AM ARCGIS-SWAT interface AV                                  
                                                                                    
    FINAL VALUES

1
    SWAT Dec 23 2016    VER 2016/Rev 664                                            

    General Input/Output section (file.cio):                                        
    5/31/2025 12:00:00 AM ARCGIS-SWAT interface AV                                  
                                                                                    
                                            Average Plant Values (kg/ha)

  HRU       1 SUB   1 PJNL  Yld =     0.0 BIOM =     23.1
  HRU       2 SUB   1 PJNL  Yld =     0.0 BIOM =     23.1
  HRU       3 SUB   1 BARR  Yld =     0.0 BIOM =      0.0
  HRU       4 SUB   1 BARR  Yld =     0.0 BIOM =      0.0
  HRU       5 SUB   1 WETN  Yld =     0.0 BIOM =      0.0
  HRU       6 SUB   1 WATR  Yld =     0.0 BIOM =      0.0
  HRU       7 SUB   1 ES9   Yld =     0.0 BIOM =      0.0
  HRU       8 SUB   1 ES9   Yld =     0.0 BIOM =      0.0
  HRU       9 SUB   1 ES10  Yld =     0.0 BIOM =      0.0
  HRU      10 SUB   1 ES11  Yld =     0.0 BIOM =      0.0
  HRU      11 SUB   1 ES12  Yld =     0.0 BIOM =      0.0
  HRU      12 SUB   1 ES13  Yld =     0.0 BIOM =      0.0
  HRU      13 SUB   2 BARR  Yld =     0.0 BIOM =      0.0
  HRU      14 SUB   2 BARR  Yld =     0.0 BIOM =      0.0
  HRU      15 SUB   2 WATR  Yld =     0.0 BIOM =      0.0
  HRU      16 SUB   2 PJNL  Yld =     0.0 BIOM =      0.0
  HRU      17 SUB   2 PJNL  Yld =     0.0 BIOM =      0.0
  HRU      18 SUB   2 ES10  Yld =     0.0 BIOM =      0.0
  HRU      19 SUB   2 ES11  Yld =     0.0 BIOM =      0.0
  HRU      20 SUB   2 ES13  Yld =     0.0 BIOM =      0.0
  HRU      21 SUB   2 ES13  Yld =     0.0 BIOM =      0.0
  HRU      22 SUB   2 ES12  Yld =     0.0 BIOM =      0.0
  HRU      23 SUB   2 ES12  Yld =     0.0 BIOM =      0.0
  HRU      24 SUB   2 ES8   Yld =     0.0 BIOM =      0.0
  HRU      25 SUB   2 ES8   Yld =     0.0 BIOM =      0.0
  HRU      26 SUB   2 ES9   Yld =     0.0 BIOM =      0.0
  HRU      27 SUB   2 ES14  Yld =     0.0 BIOM =      0.0
  HRU      28 SUB   2 ES15  Yld =     0.0 BIOM =      0.0
  HRU      29 SUB   2 ES16  Yld =     0.0 BIOM =      0.0
  HRU      30 SUB   3 ES11  Yld =     0.0 BIOM =      0.0
  HRU      31 SUB   3 ES12  Yld =     0.0 BIOM =      0.0
  HRU      32 SUB   3 ES10  Yld =     0.0 BIOM =      0.0
  HRU      33 SUB   3 BARR  Yld =     0.0 BIOM =      0.0
  HRU      34 SUB   3 BARR  Yld =     0.0 BIOM =      0.0
  HRU      35 SUB   3 ES9   Yld =     0.0 BIOM =      0.0
  HRU      36 SUB   3 ES9   Yld =     0.0 BIOM =      0.0
  HRU      37 SUB   3 ES8   Yld =     0.0 BIOM =      0.0
  HRU      38 SUB   3 PJNL  Yld =     0.0 BIOM =      0.0
  HRU      39 SUB   3 PJNL  Yld =     0.0 BIOM =      0.0
  HRU      40 SUB   3 ES13  Yld =     0.0 BIOM =      0.0
  HRU      41 SUB   3 ES14  Yld =     0.0 BIOM =      0.0
  HRU      42 SUB   3 WATR  Yld =     0.0 BIOM =      0.0
  HRU      43 SUB   3 ES7   Yld =     0.0 BIOM =      0.0
  HRU      44 SUB   3 ES7   Yld =     0.0 BIOM =      0.0
  HRU      45 SUB   3 ES6   Yld =     0.0 BIOM =      0.0
  HRU      46 SUB   3 ES6   Yld =     0.0 BIOM =      0.0
  HRU      47 SUB   3 ES5   Yld =     0.0 BIOM =      0.0
  HRU      48 SUB   3 ES5   Yld =     0.0 BIOM =      0.0
  HRU      49 SUB   3 ES4   Yld =     0.0 BIOM =      0.0

    HRU STATISTICS

                AVE ANNUAL VALUES

   HRU  SUB  SOIL       AREAkm2    CN     AWCmm   USLE_LS  IRRmm  AUTONkh AUTOPkh  MIXEF PRECmm SURQGENmm   GWQmm    ETmm   SEDth  NO3kgh  ORGNkgh BIOMth   YLDth  SURQmm
      1   1   I-Bh-Tv-   .113E+01   79.00  120.00    5.68    0.00    0.00    0.00    0.21 1056.15  193.34 1373.30   53.64  386.56    0.74   46.10    0.02    0.00  193.34
      2   1   I-Bh-Tv-   .255E-01   79.00  120.00    0.07    0.00    0.00    0.00    0.21 1056.15  196.68 1337.69   53.65    0.94    0.00   10.54    0.02    0.00  196.68
      3   1   I-Bh-Tv-   .108E+01   91.00  120.00   10.17    0.00    0.00    0.00    0.21 1056.15  605.65  983.72   50.20 2283.39    1.00   49.33    0.00    0.00  605.65
      4   1   I-Bh-Tv-   .563E-02   91.00  120.00    0.07    0.00    0.00    0.00    0.21 1056.15  607.81  951.45   50.21    2.94    0.01   23.28    0.00    0.00  607.80
      5   1   I-Bh-Tv-   .146E+00   79.00  120.00    0.07    0.00    0.00    0.00    0.21 1056.15  196.69 1340.89   50.21    1.71    0.00   16.42    0.00    0.00  196.69
      6   1   I-Bh-Tv-   .570E-01   92.00  120.00    0.07    0.00    0.00    0.00    0.21 1056.15    0.00    0.00  679.66    0.00    0.00    0.00    0.00    0.00    0.00
      7   1   I-Bh-Tv-   .844E-02   91.00  120.00   10.94    0.00    0.00    0.00    0.21 1056.15  231.73  432.70  263.97  603.44    0.98   49.00    0.00    0.00  231.73
      8   1   I-Bh-Tv-   .156E-03   91.00  120.00    0.07    0.00    0.00    0.00    0.21 1056.15  233.37  410.03  269.08    0.53    0.01    6.53    0.00    0.00  233.36
      9   1   I-Bh-Tv-   .922E-02   91.00  120.00   18.79    0.00    0.00    0.00    0.21 1056.15  231.09  439.67  261.62 1046.62    1.29   49.25    0.00    0.00  231.09
     10   1   I-Bh-Tv-   .594E-02   91.00  120.00   13.09    0.00    0.00    0.00    0.21 1056.15  231.57  434.71  263.34  692.24    1.07   49.08    0.00    0.00  231.57
     11   1   I-Bh-Tv-   .234E-02   91.00  120.00   10.89    0.00    0.00    0.00    0.21 1056.15  231.73  432.65  263.99  515.00    0.97   48.88    0.00    0.00  231.74
     12   1   I-Bh-Tv-   .969E-02   91.00  120.00   10.73    0.00    0.00    0.00    0.21 1056.15  231.75  432.49  264.03  601.51    0.97   49.00    0.00    0.00  231.75
     13   2   I-Bh-Tv-   .971E+00   91.00  120.00   11.13    0.00    0.00    0.00    0.21 1057.21  335.68  433.66   15.31 1133.27    0.46   47.83    0.00    0.00  335.68
     14   2   I-Bh-Tv-   .531E-02   91.00  120.00    0.07    0.00    0.00    0.00    0.21 1057.21  335.68  428.37   15.31    1.48    0.00   15.11    0.00    0.00  335.52
     15   2   I-Bh-Tv-   .273E-01   92.00  120.00    0.07    0.00    0.00    0.00    0.21 1057.21    0.00    0.00  253.48    0.00    0.00    0.00    0.00    0.00    0.00
     16   2   I-Bh-Tv-   .728E-01   79.00  120.00    7.41    0.00    0.00    0.00    0.21 1057.21  335.39  432.85   15.31  560.16    0.36   47.03    0.00    0.00  335.39
     17   2   I-Bh-Tv-   .469E-03   79.00  120.00    0.07    0.00    0.00    0.00    0.21 1057.21  335.39  428.65   15.31    1.05    0.00   11.64    0.00    0.00  335.23
     18   2   I-Bh-Tv-   .263E-01   91.00  120.00   11.29    0.00    0.00    0.00    0.21 1057.21  104.26  110.95  119.51  270.21    0.45   48.09    0.00    0.00  104.26
     19   2   I-Bh-Tv-   .427E-01   91.00  120.00   13.62    0.00    0.00    0.00    0.21 1057.21  104.26  111.09  119.51  345.58    0.50   48.53    0.00    0.00  104.26
     20   2   I-Bh-Tv-   .106E+00   91.00  120.00   13.28    0.00    0.00    0.00    0.21 1057.21  104.26  111.07  119.51  375.54    0.49   48.65    0.00    0.00  104.26
     21   2   I-Bh-Tv-   .469E-03   91.00  120.00    0.07    0.00    0.00    0.00    0.21 1057.21  104.26  109.78  119.57    0.25    0.03    3.31    0.00    0.00  104.23
     22   2   I-Bh-Tv-   .119E+00   91.00  120.00   10.08    0.00    0.00    0.00    0.21 1057.21  104.26  110.88  119.52  288.64    0.42   48.22    0.00    0.00  104.26
     23   2   I-Bh-Tv-   .781E-03   91.00  120.00    0.07    0.00    0.00    0.00    0.21 1057.21  104.26  109.78  119.57    0.28    0.03    3.65    0.00    0.00  104.23
     24   2   I-Bh-Tv-   .205E-01   91.00  120.00    5.63    0.00    0.00    0.00    0.21 1057.21  104.26  110.57  119.53  130.45    0.31   46.09    0.00    0.00  104.26
     25   2   I-Bh-Tv-   .313E-03   91.00  120.00    0.07    0.00    0.00    0.00    0.21 1057.21  104.26  109.78  119.57    0.22    0.03    2.97    0.00    0.00  104.23
     26   2   I-Bh-Tv-   .122E-01   91.00  120.00   17.62    0.00    0.00    0.00    0.21 1057.21  104.26  111.32  119.50  385.46    0.58   48.68    0.00    0.00  104.26
     27   2   I-Bh-Tv-   .461E-01   91.00  120.00   11.93    0.00    0.00    0.00    0.21 1057.21  104.26  110.99  119.51  305.42    0.46   48.32    0.00    0.00  104.26
     28   2   I-Bh-Tv-   .208E-01   91.00  120.00    6.75    0.00    0.00    0.00    0.21 1057.21  104.26  110.66  119.53  156.77    0.34   46.70    0.00    0.00  104.26
     29   2   I-Bh-Tv-   .109E-02   91.00  120.00    4.19    0.00    0.00    0.00    0.21 1057.21  104.26  110.49  119.54   68.20    0.27   43.39    0.00    0.00  104.26
     30   3   I-Bh-Tv-   .816E-01   91.00  120.00   16.18    0.00    0.00    0.00    0.21 1058.27  206.47  147.18  148.77  911.99    0.59   49.42    0.00    0.00  206.47
     31   3   I-Bh-Tv-   .603E-01   91.00  120.00   15.31    0.00    0.00    0.00    0.21 1058.27  206.47  147.11  148.77  832.46    0.57   49.42    0.00    0.00  206.47
     32   3   I-Bh-Tv-   .989E-01   91.00  120.00   14.52    0.00    0.00    0.00    0.21 1058.27  206.47  147.04  148.78  836.99    0.56   49.42    0.00    0.00  206.47
     33   3   I-Bh-Tv-   .451E+00   91.00  120.00   14.39    0.00    0.00    0.00    0.21 1058.27  422.92  483.78   19.32 1759.29    0.54   48.91    0.00    0.00  422.92
     34   3   I-Bh-Tv-   .156E-02   91.00  120.00    0.07    0.00    0.00    0.00    0.21 1058.27  422.92  477.16   19.32    1.64    0.00   16.33    0.00    0.00  422.89
     35   3   I-Bh-Tv-   .142E+00   91.00  120.00   10.22    0.00    0.00    0.00    0.21 1058.27  206.48  146.67  148.81  613.52    0.46   49.40    0.00    0.00  206.48
     36   3   I-Bh-Tv-   .469E-03   91.00  120.00    0.07    0.00    0.00    0.00    0.21 1058.27  206.48  145.04  148.97    0.57    0.05    7.03    0.00    0.00  206.41
     37   3   I-Bh-Tv-   .161E+00   91.00  120.00    7.60    0.00    0.00    0.00    0.21 1058.27  206.48  146.42  148.84  462.54    0.40   49.34    0.00    0.00  206.48
     38   3   I-Bh-Tv-   .155E-01   79.00  120.00   13.64    0.00    0.00    0.00    0.21 1058.27  422.57  483.91   19.32 1123.04    0.52   48.39    0.00    0.00  422.57
     39   3   I-Bh-Tv-   .156E-03   79.00  120.00    0.07    0.00    0.00    0.00    0.21 1058.27  422.58  477.49   19.32    1.08    0.00   11.89    0.00    0.00  422.55
     40   3   I-Bh-Tv-   .402E-01   91.00  120.00   16.88    0.00    0.00    0.00    0.21 1058.27  206.47  147.24  148.76  875.24    0.61   49.42    0.00    0.00  206.47
     41   3   I-Bh-Tv-   .891E-02   91.00  120.00    8.09    0.00    0.00    0.00    0.21 1058.27  206.48  146.57  148.84  349.48    0.41   49.21    0.00    0.00  206.48
     42   3   I-Bh-Tv-   .370E-01   92.00  120.00    0.07    0.00    0.00    0.00    0.21 1058.27    0.00    0.00  315.92    0.00    0.00    0.00    0.00    0.00    0.00
     43   3   I-Bh-Tv-   .105E+00   91.00  120.00    9.58    0.00    0.00    0.00    0.21 1058.27  206.48  146.61  148.82  555.27    0.45   49.38    0.00    0.00  206.48
     44   3   I-Bh-Tv-   .625E-03   91.00  120.00    0.07    0.00    0.00    0.00    0.21 1058.27  206.48  145.04  148.97    0.60    0.05    7.33    0.00    0.00  206.41
     45   3   I-Bh-Tv-   .111E+00   91.00  120.00    7.31    0.00    0.00    0.00    0.21 1058.27  206.48  146.39  148.84  426.22    0.39   49.31    0.00    0.00  206.48
     46   3   I-Bh-Tv-   .625E-03   91.00  120.00    0.07    0.00    0.00    0.00    0.21 1058.27  206.48  145.04  148.97    0.60    0.05    7.33    0.00    0.00  206.41
     47   3   I-Bh-Tv-   .556E-01   91.00  120.00    4.61    0.00    0.00    0.00    0.21 1058.27  206.48  146.09  148.87  247.40    0.32   48.91    0.00    0.00  206.48
     48   3   I-Bh-Tv-   .359E-02   91.00  120.00    0.07    0.00    0.00    0.00    0.21 1058.27  206.48  145.04  148.97    0.75    0.05    8.96    0.00    0.00  206.41
     49   3   I-Bh-Tv-   .172E-02   91.00  120.00    4.52    0.00    0.00    0.00    0.21 1058.27  206.48  146.08  148.87  160.00    0.31   48.23    0.00    0.00  206.48



                AVE MONTHLY BASIN VALUES
                   SNOW                      WATER               SED
  MON     RAIN     FALL   SURF Q    LAT Q    YIELD       ET    YIELD      PET
          (MM)     (MM)     (MM)     (MM)     (MM)     (MM)   (T/HA)     (MM)
    1   208.20   113.51    62.79    43.12   148.01     1.95   204.22     3.62
    2   246.50   135.43    96.30    47.02   198.51     2.32   311.39     4.16
    3   171.49    93.93    68.85    46.63   185.65     5.07   223.39     8.30
    4    78.26    42.80    35.18    32.30   136.37     7.41   126.05    10.43
    5    20.96    11.47    12.37    17.14    90.80    10.23    37.91    14.08
    6    13.05     7.21     1.03     6.26    48.96     9.63     3.61    13.82
    7    10.12     5.58     0.81     5.79    33.43    10.07     3.11    15.33
    8    17.25     9.49     1.24     7.95    27.38     8.40     5.88    12.25
    9    23.67    12.89     1.08     7.10    22.96     7.41     4.56    10.49
   10    58.83    32.42     5.13    11.03    30.88     4.53    18.01     6.92
   11    94.74    52.32    13.47    16.76    47.59     3.16    42.12     5.51
   12   149.39    82.35    30.22    28.75    84.89     2.22    93.48     4.06

     AVE ANNUAL BASIN STRESS DAYS
               WATER STRESS DAYS =     0.03
               TEMPERATURE STRESS DAYS =   102.24
               NITROGEN STRESS DAYS =     0.00
               PHOSPHORUS STRESS DAYS =     0.05
               AERATION STRESS DAYS =     0.00
1
    SWAT Dec 23 2016    VER 2016/Rev 664                                            

    General Input/Output section (file.cio):                                        
    5/31/2025 12:00:00 AM ARCGIS-SWAT interface AV                                  
                                                                                    
         AVE ANNUAL BASIN VALUES

              PRECIP =   1057.0 MM
              SNOW FALL =  579.95 MM
              SNOW MELT =   646.92 MM
              SUBLIMATION =     8.48 MM
              SURFACE RUNOFF Q =   317.06 MM
              LATERAL SOIL Q =  264.16 MM
              TILE Q =     0.00 MM
              GROUNDWATER (SHAL AQ) Q =   433.47 MM
              GROUNDWATER (DEEP AQ) Q =    22.59 MM
              REVAP (SHAL AQ => SOIL/PLANTS) =    1.91 MM
              DEEP AQ RECHARGE =    22.95 MM
              TOTAL AQ RECHARGE =  459.03 MM
              TOTAL WATER YLD =  1037.28 MM
              PERCOLATION OUT OF SOIL =  461.69 MM
              ET =     73.7 MM
              PET =    110.7MM
              TRANSMISSION LOSSES =     0.00 MM
              SEPTIC INFLOW =       0.00 MM
              TOTAL SEDIMENT LOADING =   1037.59 T/HA
              TILE FROM IMPOUNDED WATER =     0.000 (MM)
              EVAPORATION FROM IMPOUNDED WATER =     0.000 (MM)
              SEEPAGE INTO SOIL FROM IMPOUNDED WATER =    0.000 (MM)
              OVERFLOW FROM IMPOUNDED WATER =    0.000 (MM)
1
    SWAT Dec 23 2016    VER 2016/Rev 664                                            

    General Input/Output section (file.cio):                                        
    5/31/2025 12:00:00 AM ARCGIS-SWAT interface AV                                  
                                                                                    
              AVE ANNUAL BASIN VALUES


              NUTRIENTS
                   ORGANIC N =    45.880 (KG/HA)
                   ORGANIC P =     5.621 (KG/HA)
                   NO3 YIELD (SQ) =     0.012 (KG/HA)
                   NO3 YIELD (LAT) =    0.598 (KG/HA)
                   NO3 YIELD (TILE) =    0.000 (KG/HA)
                   SOLP YIELD (TILE) =    0.000(KG/HA)
                   SOLP YIELD (SURF INLET RISER) =    0.000 (KG/HA)
                   SOL P YIELD =    0.003 (KG/HA)
                   NO3 LEACHED =     7.349 (KG/HA)
                   P LEACHED =     0.193 (KG/HA)
                   N UPTAKE =     0.030 (KG/HA)
                   P UPTAKE =    0.004 (KG/HA)
                   NO3 YIELD (GWQ) =     0.086 (KG/HA)
                   ACTIVE TO SOLUTION P FLOW =         1.451 (KG/HA)
                   ACTIVE TO STABLE P FLOW =         3.747 (KG/HA)
                   N FERTILIZER APPLIED =     0.000 (KG/HA)
                   P FERTILIZER APPLIED =     0.000 (KG/HA)
                   N FIXATION =     0.000 (KG/HA)
                   DENITRIFICATION =     0.000 (KG/HA)
                   HUMUS MIN ON ACTIVE ORG N =     6.018 (KG/HA)
                   ACTIVE TO STABLE ORG N =    -3.175 (KG/HA)
                   HUMUS MIN ON ACTIVE ORG P =    1.031 (KG/HA)
                   MIN FROM FRESH ORG N =    0.012 (KG/HA)
                   MIN FROM FRESH ORG P =    0.002 (KG/HA)
                   NO3 IN RAINFALL =     0.000 (KG/HA)
                   INITIAL NO3 IN SOIL =      35.560 (KG/HA)
                   FINAL NO3 IN SOIL =         4.406 (KG/HA)
                   INITIAL ORG N IN SOIL =   12600.001 (KG/HA)
                   FINAL ORG N IN SOIL =     12096.718 (KG/HA)
                   INITIAL MIN P IN SOIL =    1789.938 (KG/HA)
                   FINAL MIN P IN SOIL =      1752.239 (KG/HA)
                   INITIAL ORG P IN SOIL =    1543.500 (KG/HA)
                   FINAL ORG P IN SOIL =    1479.022 (KG/HA)
                   NO3 IN FERT =     0.000 (KG/HA)
                   AMMONIA IN FERT =     0.000 (KG/HA)
                   ORG N IN FERT =     0.000 (KG/HA)
                   MINERAL P IN FERT =     0.000 (KG/HA)
                   ORG P IN FERT =     0.000 (KG/HA)
                   N REMOVED IN YIELD =     0.000 (KG/HA)
                   P REMOVED IN YIELD =     0.000 (KG/HA)
                   AMMONIA VOLATILIZATION =     0.000 (KG/HA)
                   AMMONIA NITRIFICATION =      0.000 (KG/HA)
                   NO3 EVAP-LAYER 2 TO 1 =    0.090

                   DIE-GRO P Q =           0.0 (No/M2)
                   DIE-GRO LP Q =           0.0 (No/M2)
                   DIE-GRO P SED =          0.0 (No/M2)
                   DIE-GRO LP SED =          0.0 (No/M2)
                   BACT P RUNOFF =          0.0 (No/M2)
                   BACT LP RUNOFF =          0.0 (No/M2)
                   BACT P SEDIMENT =          0.0 (No/M2)
                   BACT LP SEDIMENT =          0.0 (No/M2)
                   BACT P INCORP =          0.0 (No/M2)
                   BACT LP INCORP =          0.0 (No/M2)

                   NITRATE SEPTIC =         0.00 (kg/ha)
                   AMMONIA SEPTIC =         0.00 (kg/ha)
                   ORG N SEPTIC =         0.00 (kg/ha)
                   FRESH ORGN SEPTIC =         0.00 (kg/ha)
                   ORG P SEPTIC =         0.00 (kg/ha)
                   FRESH ORGP SEPTIC =         0.00 (kg/ha)
                   SOL P SEPTIC =         0.00 (kg/ha)
                   BOD SEPTIC =         0.00 (kg/ha)
