1
    SWAT Dec 23 2016    VER 2016/Rev 664                                                                 0/ 0/   0      0: 0: 0

    General Input/Output section (file.cio):                                        
    5/31/2025 12:00:00 AM ARCGIS-SWAT interface AV                                  
                                                                                    


       RCH      GIS   MON     AREAkm2  FLOW_INcms FLOW_OUTcms     EVAPcms    TLOSScms  SED_INtons SED_OUTtons SEDCONCmg/L   ORGN_INkg  ORGN_OUTkg   ORGP_INkg  ORGP_OUTkg    NO3_INkg   NO3_OUTkg    NH4_INkg   NH4_OUTkg    NO2_INkg   NO2_OUTkg   MINP_INkg  MINP_OUTkg   CHLA_INkg  CHLA_OUTkg   CBOD_INkg  CBOD_OUTkg  DISOX_INkg DISOX_OUTkg SOLPST_INmgSOLPST_OUTmg SORPST_INmgSORPST_OUTmg  REACTPSTmg    VOLPSTmg  SETTLPSTmgRESUSP_PSTmgDIFFUSEPSTmgREACBEDPSTmg   BURYPSTmg   BED_PSTmg BACTP_OUTctBACTLP_OUTct  CMETAL#1kg  CMETAL#2kg  CMETAL#3kg     TOT Nkg     TOT Pkg NO3ConcMg/l    WTMPdegc
REACH    1        0     3  0.5330E+01  0.7536E-01  0.7534E-01  0.2069E-04  0.0000E+00  0.2707E+05  0.1908E+02  0.1035E+03  0.3797E+05  0.3786E+05  0.8284E+04  0.8245E+04  0.1363E+03  0.1323E+03  0.2425E+02  0.6792E+02  0.0000E+00  0.1362E+00  0.2581E+01  0.7741E+01  0.7578E+03  0.4958E+03  0.1427E+07  0.1393E+07  0.8552E+03  0.1845E+03  0.0000E+00  0.0000E+00  0.0000E+00  0.0000E+00  0.0000E+00  0.0000E+00  0.0000E+00  0.0000E+00  0.0000E+00  0.0000E+00  0.0000E+00  0.0000E+00  0.0000E+00  0.0000E+00  0.0000E+00  0.0000E+00  0.0000E+00  0.3806E+05  0.8253E+04  0.0000E+00  0.0000E+00
REACH    2        0     3  0.1473E+01  0.2669E-02  0.2668E-02  0.6526E-06  0.0000E+00  0.1542E+04  0.1542E+04  0.6021E+05  0.3179E+04  0.3173E+04  0.6927E+03  0.6902E+03  0.3210E+01  0.2701E+01  0.0000E+00  0.6543E+01  0.0000E+00  0.0000E+00  0.1053E+00  0.3159E+00  0.1229E+03  0.3951E+02  0.1074E+06  0.1057E+06  0.1874E+02  0.1258E+02  0.0000E+00  0.0000E+00  0.0000E+00  0.0000E+00  0.0000E+00  0.0000E+00  0.0000E+00  0.0000E+00  0.0000E+00  0.0000E+00  0.0000E+00  0.0000E+00  0.0000E+00  0.0000E+00  0.0000E+00  0.0000E+00  0.0000E+00  0.3182E+04  0.6906E+03  0.0000E+00  0.0000E+00
REACH    3        0     3  0.1377E+01  0.1218E-01  0.1217E-01  0.2214E-05  0.0000E+00  0.6832E+04  0.6832E+04  0.1128E+06  0.1183E+05  0.1181E+05  0.2581E+04  0.2574E+04  0.3241E+01  0.2455E+01  0.0000E+00  0.1770E+02  0.0000E+00  0.0000E+00  0.4579E+00  0.1374E+01  0.4353E+03  0.2758E+03  0.4552E+06  0.4486E+06  0.5919E+02  0.2724E+02  0.0000E+00  0.0000E+00  0.0000E+00  0.0000E+00  0.0000E+00  0.0000E+00  0.0000E+00  0.0000E+00  0.0000E+00  0.0000E+00  0.0000E+00  0.0000E+00  0.0000E+00  0.0000E+00  0.0000E+00  0.0000E+00  0.0000E+00  0.1183E+05  0.2576E+04  0.0000E+00  0.0000E+00
REACH    1        0     4  0.5330E+01  0.4050E-01  0.4045E-01  0.4539E-04  0.0000E+00  0.1833E+05  0.1239E+02  0.7357E+02  0.1168E+05  0.1165E+05  0.2566E+04  0.2553E+04  0.8645E+02  0.8559E+02  0.1711E+02  0.3625E+02  0.0000E+00  0.1627E+00  0.8667E+00  0.2597E+01  0.2018E+03  0.1481E+03  0.9684E+06  0.9461E+06  0.8196E+03  0.4164E+03  0.0000E+00  0.0000E+00  0.0000E+00  0.0000E+00  0.0000E+00  0.0000E+00  0.0000E+00  0.0000E+00  0.0000E+00  0.0000E+00  0.0000E+00  0.0000E+00  0.0000E+00  0.0000E+00  0.0000E+00  0.0000E+00  0.0000E+00  0.1177E+05  0.2556E+04  0.0000E+00  0.0000E+00
REACH    2        0     4  0.1473E+01  0.1330E-02  0.1329E-02  0.1072E-05  0.0000E+00  0.1783E+04  0.1783E+04  0.4364E+05  0.2916E+04  0.2910E+04  0.6359E+03  0.6339E+03  0.2340E+00  0.3146E-03  0.0000E+00  0.5292E+01  0.0000E+00  0.0000E+00  0.8405E-01  0.2519E+00  0.1166E+03  0.6392E+02  0.1191E+06  0.1171E+06  0.5072E+01  0.3959E+01  0.0000E+00  0.0000E+00  0.0000E+00  0.0000E+00  0.0000E+00  0.0000E+00  0.0000E+00  0.0000E+00  0.0000E+00  0.0000E+00  0.0000E+00  0.0000E+00  0.0000E+00  0.0000E+00  0.0000E+00  0.0000E+00  0.0000E+00  0.2915E+04  0.6341E+03  0.0000E+00  0.0000E+00
REACH    3        0     4  0.1377E+01  0.2456E-02  0.2452E-02  0.3417E-05  0.0000E+00  0.3108E+04  0.3108E+04  0.7579E+05  0.3235E+04  0.3220E+04  0.7085E+03  0.7034E+03  0.4401E+00  0.3461E-01  0.0000E+00  0.1181E+02  0.0000E+00  0.0000E+00  0.1086E+00  0.3252E+00  0.1294E+03  0.4561E+02  0.2071E+06  0.2016E+06  0.1038E+02  0.6369E+01  0.0000E+00  0.0000E+00  0.0000E+00  0.0000E+00  0.0000E+00  0.0000E+00  0.0000E+00  0.0000E+00  0.0000E+00  0.0000E+00  0.0000E+00  0.0000E+00  0.0000E+00  0.0000E+00  0.0000E+00  0.0000E+00  0.0000E+00  0.3232E+04  0.7037E+03  0.0000E+00  0.0000E+00
REACH    1        0     5  0.5330E+01  0.1810E-01  0.1806E-01  0.3817E-04  0.0000E+00  0.6214E+03  0.2785E+01  0.5834E+02  0.1370E+04  0.1358E+04  0.2977E+03  0.2938E+03  0.1922E+02  0.1918E+02  0.1030E+02  0.1851E+02  0.0000E+00  0.1377E+00  0.1200E+00  0.3596E+00  0.3219E-06  0.0000E+00  0.3971E+05  0.3723E+05  0.5008E+03  0.3086E+03  0.0000E+00  0.0000E+00  0.0000E+00  0.0000E+00  0.0000E+00  0.0000E+00  0.0000E+00  0.0000E+00  0.0000E+00  0.0000E+00  0.0000E+00  0.0000E+00  0.0000E+00  0.0000E+00  0.0000E+00  0.0000E+00  0.0000E+00  0.1395E+04  0.2941E+03  0.0000E+00  0.0000E+00
REACH    2        0     5  0.1473E+01  0.6950E-03  0.6929E-03  0.2009E-05  0.0000E+00  0.5841E+03  0.5841E+03  0.6980E+05  0.1356E+04  0.1343E+04  0.2961E+03  0.2919E+03  0.4465E-01  0.0000E+00  0.0000E+00  0.9917E+01  0.0000E+00  0.0000E+00  0.3918E-01  0.1172E+00  0.5423E+02  0.0000E+00  0.4002E+05  0.3750E+05  0.1526E+01  0.1169E+01  0.0000E+00  0.0000E+00  0.0000E+00  0.0000E+00  0.0000E+00  0.0000E+00  0.0000E+00  0.0000E+00  0.0000E+00  0.0000E+00  0.0000E+00  0.0000E+00  0.0000E+00  0.0000E+00  0.0000E+00  0.0000E+00  0.0000E+00  0.1353E+04  0.2920E+03  0.0000E+00  0.0000E+00
REACH    3        0     5  0.1377E+01  0.3524E-04  0.3484E-04  0.3970E-06  0.0000E+00  0.3530E+02  0.3530E+02  0.6452E+04  0.2686E+02  0.2629E+02  0.5923E+01  0.5737E+01  0.2418E+00  0.2067E+00  0.0000E+00  0.3860E+00  0.0000E+00  0.0000E+00  0.9666E-03  0.2840E-02  0.1084E+01  0.0000E+00  0.2574E+04  0.2206E+04  0.6020E-02  0.8322E-02  0.0000E+00  0.0000E+00  0.0000E+00  0.0000E+00  0.0000E+00  0.0000E+00  0.0000E+00  0.0000E+00  0.0000E+00  0.0000E+00  0.0000E+00  0.0000E+00  0.0000E+00  0.0000E+00  0.0000E+00  0.0000E+00  0.0000E+00  0.2688E+02  0.5740E+01  0.0000E+00  0.0000E+00
REACH    1        0     6  0.5330E+01  0.1048E-01  0.1045E-01  0.3527E-04  0.0000E+00  0.1040E+02  0.1176E+01  0.4152E+02  0.1184E+02  0.1175E+02  0.2499E+01  0.2471E+01  0.6155E+01  0.6136E+01  0.6013E+00  0.7090E+00  0.0000E+00  0.6649E-02  0.1249E-02  0.3725E-02  0.3235E-06  0.0000E+00  0.4008E+03  0.3781E+03  0.2943E+03  0.2807E+03  0.0000E+00  0.0000E+00  0.0000E+00  0.0000E+00  0.0000E+00  0.0000E+00  0.0000E+00  0.0000E+00  0.0000E+00  0.0000E+00  0.0000E+00  0.0000E+00  0.0000E+00  0.0000E+00  0.0000E+00  0.0000E+00  0.0000E+00  0.1860E+02  0.2474E+01  0.0000E+00  0.0000E+00
REACH    2        0     6  0.1473E+01  0.8264E-05  0.8172E-05  0.9197E-07  0.0000E+00  0.8594E+01  0.8594E+01  0.6667E+04  0.1193E+02  0.1135E+02  0.2610E+01  0.2399E+01  0.1005E+00  0.3750E-01  0.0000E+00  0.5408E+00  0.0000E+00  0.0000E+00  0.4028E-03  0.1182E-02  0.4812E+00  0.0000E+00  0.6272E+03  0.3921E+03  0.1877E-02  0.1887E-02  0.0000E+00  0.0000E+00  0.0000E+00  0.0000E+00  0.0000E+00  0.0000E+00  0.0000E+00  0.0000E+00  0.0000E+00  0.0000E+00  0.0000E+00  0.0000E+00  0.0000E+00  0.0000E+00  0.0000E+00  0.0000E+00  0.0000E+00  0.1193E+02  0.2400E+01  0.0000E+00  0.0000E+00
REACH    3        0     6  0.1377E+01  0.7163E-06  0.5664E-06  0.1500E-06  0.0000E+00  0.5063E+00  0.5063E+00  0.6667E+04  0.5280E+00  0.3705E+00  0.1161E+00  0.7199E-01  0.3928E-02  0.0000E+00  0.0000E+00  0.6055E-01  0.0000E+00  0.0000E+00  0.2605E-04  0.5329E-04  0.2127E-01  0.0000E+00  0.4033E+02  0.7787E+01  0.2089E-03  0.1308E-03  0.0000E+00  0.0000E+00  0.0000E+00  0.0000E+00  0.0000E+00  0.0000E+00  0.0000E+00  0.0000E+00  0.0000E+00  0.0000E+00  0.0000E+00  0.0000E+00  0.0000E+00  0.0000E+00  0.0000E+00  0.0000E+00  0.0000E+00  0.4310E+00  0.7204E-01  0.0000E+00  0.0000E+00
REACH    1        0     7  0.5330E+01  0.5300E-02  0.5254E-02  0.4695E-04  0.0000E+00  0.2647E-06  0.3066E+00  0.2099E+02  0.7237E-05  0.0000E+00  0.2171E-04  0.2070E-04  0.3110E+00  0.3084E+00  0.0000E+00  0.4879E-01  0.0000E+00  0.0000E+00  0.7246E-05  0.0000E+00  0.1004E-13  0.0000E+00  0.0000E+00  0.0000E+00  0.1539E+03  0.1543E+03  0.0000E+00  0.0000E+00  0.0000E+00  0.0000E+00  0.0000E+00  0.0000E+00  0.0000E+00  0.0000E+00  0.0000E+00  0.0000E+00  0.0000E+00  0.0000E+00  0.0000E+00  0.0000E+00  0.0000E+00  0.0000E+00  0.0000E+00  0.3572E+00  0.2070E-04  0.0000E+00  0.0000E+00
REACH    2        0     7  0.1473E+01  0.9073E-07  0.0000E+00  0.9073E-07  0.0000E+00  0.5424E-01  0.0000E+00  0.0000E+00  0.8250E-01  0.0000E+00  0.1807E-01  0.0000E+00  0.1414E-02  0.0000E+00  0.0000E+00  0.0000E+00  0.0000E+00  0.0000E+00  0.8042E-05  0.0000E+00  0.3356E-02  0.0000E+00  0.4350E+01  0.0000E+00  0.1410E-04  0.0000E+00  0.0000E+00  0.0000E+00  0.0000E+00  0.0000E+00  0.0000E+00  0.0000E+00  0.0000E+00  0.0000E+00  0.0000E+00  0.0000E+00  0.0000E+00  0.0000E+00  0.0000E+00  0.0000E+00  0.0000E+00  0.0000E+00  0.0000E+00  0.0000E+00  0.0000E+00  0.0000E+00  0.0000E+00
REACH    3        0     7  0.1377E+01  0.1589E-07  0.0000E+00  0.1589E-07  0.0000E+00  0.4657E-06  0.0000E+00  0.0000E+00  0.4139E-05  0.0000E+00  0.1242E-04  0.0000E+00  0.4209E-05  0.0000E+00  0.0000E+00  0.0000E+00  0.0000E+00  0.0000E+00  0.4144E-05  0.0000E+00  0.0000E+00  0.0000E+00  0.0000E+00  0.0000E+00  0.0000E+00  0.0000E+00  0.0000E+00  0.0000E+00  0.0000E+00  0.0000E+00  0.0000E+00  0.0000E+00  0.0000E+00  0.0000E+00  0.0000E+00  0.0000E+00  0.0000E+00  0.0000E+00  0.0000E+00  0.0000E+00  0.0000E+00  0.0000E+00  0.0000E+00  0.0000E+00  0.0000E+00  0.0000E+00  0.0000E+00
REACH    1        0     8  0.5330E+01  0.6262E-02  0.6236E-02  0.2570E-04  0.0000E+00  0.4741E+03  0.5377E+00  0.2317E+02  0.3550E+03  0.3518E+03  0.7829E+02  0.7723E+02  0.1732E+02  0.1728E+02  0.2366E+01  0.4741E+01  0.0000E+00  0.3080E-01  0.2628E-01  0.7878E-01  0.4818E-01  0.0000E+00  0.2226E+05  0.2086E+05  0.1712E+03  0.1362E+03  0.0000E+00  0.0000E+00  0.0000E+00  0.0000E+00  0.0000E+00  0.0000E+00  0.0000E+00  0.0000E+00  0.0000E+00  0.0000E+00  0.0000E+00  0.0000E+00  0.0000E+00  0.0000E+00  0.0000E+00  0.0000E+00  0.0000E+00  0.3738E+03  0.7731E+02  0.0000E+00  0.0000E+00
REACH    2        0     8  0.1473E+01  0.4020E-04  0.4001E-04  0.1894E-06  0.0000E+00  0.6516E+02  0.6516E+02  0.1290E+05  0.8214E+02  0.8043E+02  0.1798E+02  0.1737E+02  0.7907E+00  0.6234E+00  0.0000E+00  0.1539E+01  0.0000E+00  0.0000E+00  0.1927E-02  0.5740E-02  0.3317E+01  0.0000E+00  0.4266E+04  0.3577E+04  0.4655E-01  0.4235E-01  0.0000E+00  0.0000E+00  0.0000E+00  0.0000E+00  0.0000E+00  0.0000E+00  0.0000E+00  0.0000E+00  0.0000E+00  0.0000E+00  0.0000E+00  0.0000E+00  0.0000E+00  0.0000E+00  0.0000E+00  0.0000E+00  0.0000E+00  0.8259E+02  0.1737E+02  0.0000E+00  0.0000E+00
REACH    3        0     8  0.1377E+01  0.2903E-03  0.2892E-03  0.1118E-05  0.0000E+00  0.2573E+03  0.2573E+03  0.8074E+04  0.2587E+03  0.2575E+03  0.5724E+02  0.5686E+02  0.6428E+01  0.6344E+01  0.0000E+00  0.8272E+00  0.0000E+00  0.0000E+00  0.6744E-02  0.2004E-01  0.1060E+02  0.0000E+00  0.1641E+05  0.1581E+05  0.5284E+01  0.7505E-01  0.0000E+00  0.0000E+00  0.0000E+00  0.0000E+00  0.0000E+00  0.0000E+00  0.0000E+00  0.0000E+00  0.0000E+00  0.0000E+00  0.0000E+00  0.0000E+00  0.0000E+00  0.0000E+00  0.0000E+00  0.0000E+00  0.0000E+00  0.2647E+03  0.5688E+02  0.0000E+00  0.0000E+00
REACH    1        0     9  0.5330E+01  0.1068E-01  0.1066E-01  0.2318E-04  0.0000E+00  0.1827E+04  0.1447E+01  0.3875E+02  0.8907E+03  0.8858E+03  0.1969E+03  0.1952E+03  0.4290E+02  0.4276E+02  0.4120E+01  0.7977E+01  0.0000E+00  0.5090E-01  0.5524E-01  0.1656E+00  0.1533E+02  0.0000E+00  0.9830E+05  0.9435E+05  0.2730E+03  0.1868E+03  0.0000E+00  0.0000E+00  0.0000E+00  0.0000E+00  0.0000E+00  0.0000E+00  0.0000E+00  0.0000E+00  0.0000E+00  0.0000E+00  0.0000E+00  0.0000E+00  0.0000E+00  0.0000E+00  0.0000E+00  0.0000E+00  0.0000E+00  0.9366E+03  0.1954E+03  0.0000E+00  0.0000E+00
REACH    2        0     9  0.1473E+01  0.1041E-03  0.1036E-03  0.4838E-06  0.0000E+00  0.1032E+03  0.1032E+03  0.4667E+05  0.1428E+03  0.1404E+03  0.3127E+02  0.3041E+02  0.1948E+01  0.1730E+01  0.0000E+00  0.2148E+01  0.0000E+00  0.0000E+00  0.4688E-02  0.1397E-01  0.5790E+01  0.0000E+00  0.7616E+04  0.6582E+04  0.1682E-01  0.2481E-01  0.0000E+00  0.0000E+00  0.0000E+00  0.0000E+00  0.0000E+00  0.0000E+00  0.0000E+00  0.0000E+00  0.0000E+00  0.0000E+00  0.0000E+00  0.0000E+00  0.0000E+00  0.0000E+00  0.0000E+00  0.0000E+00  0.0000E+00  0.1443E+03  0.3043E+02  0.0000E+00  0.0000E+00
REACH    3        0     9  0.1377E+01  0.6760E-03  0.6744E-03  0.1624E-05  0.0000E+00  0.1391E+04  0.1391E+04  0.3674E+05  0.7258E+03  0.7236E+03  0.1609E+03  0.1601E+03  0.1428E+02  0.1413E+02  0.0000E+00  0.1972E+01  0.0000E+00  0.0000E+00  0.1356E-01  0.4040E-01  0.2960E+02  0.1518E+02  0.8509E+05  0.8312E+05  0.9646E-01  0.1864E+00  0.0000E+00  0.0000E+00  0.0000E+00  0.0000E+00  0.0000E+00  0.0000E+00  0.0000E+00  0.0000E+00  0.0000E+00  0.0000E+00  0.0000E+00  0.0000E+00  0.0000E+00  0.0000E+00  0.0000E+00  0.0000E+00  0.0000E+00  0.7397E+03  0.1601E+03  0.0000E+00  0.0000E+00
REACH    1        0    10  0.5330E+01  0.2676E-01  0.2673E-01  0.2460E-04  0.0000E+00  0.5512E+04  0.6164E+01  0.5961E+02  0.3158E+04  0.3143E+04  0.7002E+03  0.6952E+03  0.8006E+02  0.7979E+02  0.7238E+01  0.1825E+02  0.0000E+00  0.5393E-01  0.3282E+00  0.9835E+00  0.5543E+02  0.7185E+01  0.3096E+06  0.2974E+06  0.5996E+03  0.3137E+03  0.0000E+00  0.0000E+00  0.0000E+00  0.0000E+00  0.0000E+00  0.0000E+00  0.0000E+00  0.0000E+00  0.0000E+00  0.0000E+00  0.0000E+00  0.0000E+00  0.0000E+00  0.0000E+00  0.0000E+00  0.0000E+00  0.0000E+00  0.3242E+04  0.6961E+03  0.0000E+00  0.0000E+00
REACH    2        0    10  0.1473E+01  0.5691E-03  0.5686E-03  0.5694E-06  0.0000E+00  0.3869E+03  0.3869E+03  0.3873E+05  0.6280E+03  0.6253E+03  0.1375E+03  0.1365E+03  0.3852E+01  0.3710E+01  0.0000E+00  0.2728E+01  0.0000E+00  0.0000E+00  0.2578E-01  0.7722E-01  0.2527E+02  0.9654E+01  0.3038E+05  0.2920E+05  0.9271E-01  0.1879E+00  0.0000E+00  0.0000E+00  0.0000E+00  0.0000E+00  0.0000E+00  0.0000E+00  0.0000E+00  0.0000E+00  0.0000E+00  0.0000E+00  0.0000E+00  0.0000E+00  0.0000E+00  0.0000E+00  0.0000E+00  0.0000E+00  0.0000E+00  0.6317E+03  0.1366E+03  0.0000E+00  0.0000E+00
REACH    3        0    10  0.1377E+01  0.4935E-02  0.4933E-02  0.1770E-05  0.0000E+00  0.3422E+04  0.3422E+04  0.5833E+05  0.2390E+04  0.2385E+04  0.5303E+03  0.5285E+03  0.1951E+02  0.1929E+02  0.0000E+00  0.4510E+01  0.0000E+00  0.0000E+00  0.8221E-01  0.2464E+00  0.9637E+02  0.4508E+02  0.2469E+06  0.2424E+06  0.2096E+02  0.1582E+02  0.0000E+00  0.0000E+00  0.0000E+00  0.0000E+00  0.0000E+00  0.0000E+00  0.0000E+00  0.0000E+00  0.0000E+00  0.0000E+00  0.0000E+00  0.0000E+00  0.0000E+00  0.0000E+00  0.0000E+00  0.0000E+00  0.0000E+00  0.2409E+04  0.5287E+03  0.0000E+00  0.0000E+00
REACH    1        0    11  0.5330E+01  0.7035E-01  0.7033E-01  0.2033E-04  0.0000E+00  0.1812E+05  0.2174E+02  0.1020E+03  0.6961E+04  0.6937E+04  0.1540E+04  0.1532E+04  0.1050E+03  0.1047E+03  0.1154E+02  0.2889E+02  0.0000E+00  0.6741E-01  0.6680E+00  0.1996E+01  0.1039E+03  0.5040E+02  0.9455E+06  0.9190E+06  0.1405E+04  0.5160E+03  0.0000E+00  0.0000E+00  0.0000E+00  0.0000E+00  0.0000E+00  0.0000E+00  0.0000E+00  0.0000E+00  0.0000E+00  0.0000E+00  0.0000E+00  0.0000E+00  0.0000E+00  0.0000E+00  0.0000E+00  0.0000E+00  0.0000E+00  0.7070E+04  0.1534E+04  0.0000E+00  0.0000E+00
REACH    2        0    11  0.1473E+01  0.2176E-02  0.2175E-02  0.6001E-06  0.0000E+00  0.1993E+04  0.1993E+04  0.7337E+05  0.2801E+04  0.2794E+04  0.6136E+03  0.6110E+03  0.2201E+00  0.4290E-01  0.0000E+00  0.6740E+01  0.0000E+00  0.0000E+00  0.8821E-01  0.2645E+00  0.1120E+03  0.4147E+02  0.1442E+06  0.1410E+06  0.6808E+01  0.5358E+01  0.0000E+00  0.0000E+00  0.0000E+00  0.0000E+00  0.0000E+00  0.0000E+00  0.0000E+00  0.0000E+00  0.0000E+00  0.0000E+00  0.0000E+00  0.0000E+00  0.0000E+00  0.0000E+00  0.0000E+00  0.0000E+00  0.0000E+00  0.2801E+04  0.6113E+03  0.0000E+00  0.0000E+00
REACH    3        0    11  0.1377E+01  0.9755E-02  0.9753E-02  0.1174E-05  0.0000E+00  0.5558E+04  0.5558E+04  0.1005E+06  0.2703E+04  0.2698E+04  0.5995E+03  0.5977E+03  0.3099E+00  0.2092E+00  0.0000E+00  0.4800E+01  0.0000E+00  0.0000E+00  0.1096E+00  0.3287E+00  0.1081E+03  0.5405E+02  0.4133E+06  0.4061E+06  0.3752E+02  0.1139E+02  0.0000E+00  0.0000E+00  0.0000E+00  0.0000E+00  0.0000E+00  0.0000E+00  0.0000E+00  0.0000E+00  0.0000E+00  0.0000E+00  0.0000E+00  0.0000E+00  0.0000E+00  0.0000E+00  0.0000E+00  0.0000E+00  0.0000E+00  0.2703E+04  0.5980E+03  0.0000E+00  0.0000E+00
REACH    1        0    12  0.5330E+01  0.1329E+00  0.1329E+00  0.1806E-04  0.0000E+00  0.5761E+05  0.6171E+02  0.1405E+03  0.1372E+05  0.1369E+05  0.3023E+04  0.3012E+04  0.1065E+03  0.1061E+03  0.1064E+02  0.2738E+02  0.0000E+00  0.4611E-01  0.1237E+01  0.3705E+01  0.2890E+03  0.2255E+03  0.3156E+07  0.3094E+07  0.2429E+04  0.8760E+03  0.0000E+00  0.0000E+00  0.0000E+00  0.0000E+00  0.0000E+00  0.0000E+00  0.0000E+00  0.0000E+00  0.0000E+00  0.0000E+00  0.0000E+00  0.0000E+00  0.0000E+00  0.0000E+00  0.0000E+00  0.0000E+00  0.0000E+00  0.1382E+05  0.3016E+04  0.0000E+00  0.0000E+00
REACH    2        0    12  0.1473E+01  0.4950E-02  0.4949E-02  0.5603E-06  0.0000E+00  0.3926E+04  0.3926E+04  0.8543E+05  0.4865E+04  0.4858E+04  0.1068E+04  0.1065E+04  0.6892E-01  0.4101E-03  0.0000E+00  0.6811E+01  0.0000E+00  0.0000E+00  0.1662E+00  0.4985E+00  0.1946E+03  0.1158E+03  0.2911E+06  0.2876E+06  0.2102E+02  0.1548E+02  0.0000E+00  0.0000E+00  0.0000E+00  0.0000E+00  0.0000E+00  0.0000E+00  0.0000E+00  0.0000E+00  0.0000E+00  0.0000E+00  0.0000E+00  0.0000E+00  0.0000E+00  0.0000E+00  0.0000E+00  0.0000E+00  0.0000E+00  0.4865E+04  0.1066E+04  0.0000E+00  0.0000E+00
REACH    3        0    12  0.1377E+01  0.2712E-01  0.2712E-01  0.1049E-05  0.0000E+00  0.2244E+05  0.2244E+05  0.1079E+06  0.3772E+04  0.3768E+04  0.8381E+03  0.8367E+03  0.9712E-01  0.6723E-01  0.0000E+00  0.3827E+01  0.0000E+00  0.0000E+00  0.1590E+00  0.4770E+00  0.1509E+03  0.1226E+03  0.1595E+07  0.1580E+07  0.2605E+03  0.1205E+03  0.0000E+00  0.0000E+00  0.0000E+00  0.0000E+00  0.0000E+00  0.0000E+00  0.0000E+00  0.0000E+00  0.0000E+00  0.0000E+00  0.0000E+00  0.0000E+00  0.0000E+00  0.0000E+00  0.0000E+00  0.0000E+00  0.0000E+00  0.3772E+04  0.8371E+03  0.0000E+00  0.0000E+00
REACH    1        0  1981  0.5330E+01  0.3855E-01  0.3852E-01  0.3013E-04  0.0000E+00  0.1296E+06  0.1273E+03  0.6497E+02  0.7612E+05  0.7589E+05  0.1669E+05  0.1661E+05  0.6002E+03  0.5942E+03  0.8816E+02  0.2107E+03  0.0000E+00  0.6924E+00  0.5884E+01  0.1763E+02  0.1423E+04  0.9270E+03  0.6967E+07  0.6802E+07  0.7502E+04  0.3373E+04  0.0000E+00  0.0000E+00  0.0000E+00  0.0000E+00  0.0000E+00  0.0000E+00  0.0000E+00  0.0000E+00  0.0000E+00  0.0000E+00  0.0000E+00  0.0000E+00  0.0000E+00  0.0000E+00  0.0000E+00  0.0000E+00  0.0000E+00  0.7669E+05  0.1662E+05  0.0000E+00  0.0000E+00
REACH    2        0  1981  0.1473E+01  0.1211E-02  0.1210E-02  0.6322E-06  0.0000E+00  0.1039E+05  0.1039E+05  0.4320E+05  0.1598E+05  0.1594E+05  0.3496E+04  0.3479E+04  0.1047E+02  0.8846E+01  0.0000E+00  0.4226E+02  0.0000E+00  0.0000E+00  0.5157E+00  0.1546E+01  0.6353E+03  0.2703E+03  0.7447E+06  0.7285E+06  0.5332E+02  0.3881E+02  0.0000E+00  0.0000E+00  0.0000E+00  0.0000E+00  0.0000E+00  0.0000E+00  0.0000E+00  0.0000E+00  0.0000E+00  0.0000E+00  0.0000E+00  0.0000E+00  0.0000E+00  0.0000E+00  0.0000E+00  0.0000E+00  0.0000E+00  0.1599E+05  0.3481E+04  0.0000E+00  0.0000E+00
REACH    3        0  1981  0.1377E+01  0.5561E-02  0.5560E-02  0.1258E-05  0.0000E+00  0.4305E+05  0.4305E+05  0.4920E+05  0.2494E+05  0.2489E+05  0.5482E+04  0.5463E+04  0.4456E+02  0.4274E+02  0.0000E+00  0.4590E+02  0.0000E+00  0.0000E+00  0.9387E+00  0.2814E+01  0.9615E+03  0.5582E+03  0.3021E+07  0.2979E+07  0.3939E+03  0.1816E+03  0.0000E+00  0.0000E+00  0.0000E+00  0.0000E+00  0.0000E+00  0.0000E+00  0.0000E+00  0.0000E+00  0.0000E+00  0.0000E+00  0.0000E+00  0.0000E+00  0.0000E+00  0.0000E+00  0.0000E+00  0.0000E+00  0.0000E+00  0.2498E+05  0.5466E+04  0.0000E+00  0.0000E+00
REACH    1        0     1  0.5330E+01  0.1594E+00  0.1594E+00  0.1112E-04  0.0000E+00  0.4822E+05  0.7116E+02  0.1536E+03  0.1397E+05  0.1394E+05  0.3067E+04  0.3054E+04  0.9065E+02  0.9033E+02  0.1268E+02  0.3463E+02  0.0000E+00  0.5991E-01  0.1403E+01  0.4209E+01  0.2448E+03  0.1639E+03  0.2704E+07  0.2642E+07  0.3034E+04  0.5363E+03  0.0000E+00  0.0000E+00  0.0000E+00  0.0000E+00  0.0000E+00  0.0000E+00  0.0000E+00  0.0000E+00  0.0000E+00  0.0000E+00  0.0000E+00  0.0000E+00  0.0000E+00  0.0000E+00  0.0000E+00  0.0000E+00  0.0000E+00  0.1406E+05  0.3058E+04  0.0000E+00  0.0000E+00
REACH    2        0     1  0.1473E+01  0.5957E-02  0.5957E-02  0.3330E-06  0.0000E+00  0.5639E+04  0.5639E+04  0.1082E+06  0.4427E+04  0.4419E+04  0.9728E+03  0.9698E+03  0.2221E+00  0.9777E-01  0.0000E+00  0.7793E+01  0.0000E+00  0.0000E+00  0.1528E+00  0.4584E+00  0.1771E+03  0.8561E+02  0.3966E+06  0.3909E+06  0.2699E+02  0.1106E+02  0.0000E+00  0.0000E+00  0.0000E+00  0.0000E+00  0.0000E+00  0.0000E+00  0.0000E+00  0.0000E+00  0.0000E+00  0.0000E+00  0.0000E+00  0.0000E+00  0.0000E+00  0.0000E+00  0.0000E+00  0.0000E+00  0.0000E+00  0.4427E+04  0.9703E+03  0.0000E+00  0.0000E+00
REACH    3        0     1  0.1377E+01  0.3177E-01  0.3177E-01  0.6435E-06  0.0000E+00  0.2370E+05  0.2370E+05  0.1288E+06  0.4239E+04  0.4234E+04  0.9333E+03  0.9314E+03  0.1467E+01  0.1382E+01  0.0000E+00  0.4886E+01  0.0000E+00  0.0000E+00  0.2235E+00  0.6704E+00  0.1696E+03  0.1226E+03  0.1683E+07  0.1666E+07  0.1571E+03  0.6832E+02  0.0000E+00  0.0000E+00  0.0000E+00  0.0000E+00  0.0000E+00  0.0000E+00  0.0000E+00  0.0000E+00  0.0000E+00  0.0000E+00  0.0000E+00  0.0000E+00  0.0000E+00  0.0000E+00  0.0000E+00  0.0000E+00  0.0000E+00  0.4241E+04  0.9321E+03  0.0000E+00  0.0000E+00
REACH    1        0     2  0.5330E+01  0.2831E+00  0.2831E+00  0.8073E-05  0.0000E+00  0.1008E+06  0.1431E+03  0.2068E+03  0.1461E+05  0.1458E+05  0.3219E+04  0.3209E+04  0.1424E+03  0.1422E+03  0.9102E+01  0.2464E+02  0.0000E+00  0.2977E-01  0.1405E+01  0.4198E+01  0.2423E+03  0.2076E+03  0.4906E+07  0.4830E+07  0.4555E+04  0.7690E+03  0.0000E+00  0.0000E+00  0.0000E+00  0.0000E+00  0.0000E+00  0.0000E+00  0.0000E+00  0.0000E+00  0.0000E+00  0.0000E+00  0.0000E+00  0.0000E+00  0.0000E+00  0.0000E+00  0.0000E+00  0.0000E+00  0.0000E+00  0.1475E+05  0.3213E+04  0.0000E+00  0.0000E+00
REACH    2        0     2  0.1473E+01  0.1292E-01  0.1292E-01  0.2441E-06  0.0000E+00  0.8769E+04  0.8769E+04  0.1252E+06  0.6406E+04  0.6398E+04  0.1410E+04  0.1407E+04  0.3954E+01  0.3919E+01  0.0000E+00  0.8002E+01  0.0000E+00  0.0000E+00  0.2292E+00  0.6876E+00  0.2493E+03  0.1473E+03  0.6162E+06  0.6093E+06  0.8182E+02  0.3583E+02  0.0000E+00  0.0000E+00  0.0000E+00  0.0000E+00  0.0000E+00  0.0000E+00  0.0000E+00  0.0000E+00  0.0000E+00  0.0000E+00  0.0000E+00  0.0000E+00  0.0000E+00  0.0000E+00  0.0000E+00  0.0000E+00  0.0000E+00  0.6410E+04  0.1408E+04  0.0000E+00  0.0000E+00
REACH    3        0     2  0.1377E+01  0.4007E-01  0.4007E-01  0.5023E-06  0.0000E+00  0.3159E+05  0.3159E+05  0.1026E+06  0.1378E+04  0.1376E+04  0.3080E+03  0.3076E+03  0.5647E+02  0.5646E+02  0.0000E+00  0.1101E+01  0.0000E+00  0.0000E+00  0.6977E-01  0.1920E+00  0.4579E+02  0.4012E+02  0.1854E+07  0.1841E+07  0.4673E+03  0.2157E+03  0.0000E+00  0.0000E+00  0.0000E+00  0.0000E+00  0.0000E+00  0.0000E+00  0.0000E+00  0.0000E+00  0.0000E+00  0.0000E+00  0.0000E+00  0.0000E+00  0.0000E+00  0.0000E+00  0.0000E+00  0.0000E+00  0.0000E+00  0.1434E+04  0.3078E+03  0.0000E+00  0.0000E+00
REACH    1        0     3  0.5330E+01  0.2792E+00  0.2792E+00  0.3918E-04  0.0000E+00  0.9566E+05  0.1589E+03  0.2049E+03  0.5160E+04  0.5148E+04  0.1148E+04  0.1144E+04  0.1794E+03  0.1794E+03  0.3366E+01  0.9640E+01  0.0000E+00  0.1214E-01  0.6260E+00  0.1878E+01  0.5389E+02  0.4436E+02  0.3652E+07  0.3590E+07  0.5408E+04  0.1167E+04  0.0000E+00  0.0000E+00  0.0000E+00  0.0000E+00  0.0000E+00  0.0000E+00  0.0000E+00  0.0000E+00  0.0000E+00  0.0000E+00  0.0000E+00  0.0000E+00  0.0000E+00  0.0000E+00  0.0000E+00  0.0000E+00  0.0000E+00  0.5337E+04  0.1146E+04  0.0000E+00  0.0000E+00
REACH    2        0     3  0.1473E+01  0.2218E-01  0.2218E-01  0.1419E-05  0.0000E+00  0.1391E+05  0.1391E+05  0.1136E+06  0.3319E+04  0.3315E+04  0.7389E+03  0.7375E+03  0.5740E+02  0.5737E+02  0.0000E+00  0.3290E+01  0.0000E+00  0.0000E+00  0.1354E+00  0.4063E+00  0.6537E+02  0.4707E+02  0.6779E+06  0.6721E+06  0.4298E+03  0.1853E+03  0.0000E+00  0.0000E+00  0.0000E+00  0.0000E+00  0.0000E+00  0.0000E+00  0.0000E+00  0.0000E+00  0.0000E+00  0.0000E+00  0.0000E+00  0.0000E+00  0.0000E+00  0.0000E+00  0.0000E+00  0.0000E+00  0.0000E+00  0.3376E+04  0.7379E+03  0.0000E+00  0.0000E+00
REACH    3        0     3  0.1377E+01  0.3763E-01  0.3763E-01  0.3403E-05  0.0000E+00  0.2248E+05  0.2248E+05  0.1267E+06  0.5883E+02  0.5875E+02  0.1478E+02  0.1475E+02  0.6183E+02  0.6183E+02  0.0000E+00  0.7589E-01  0.0000E+00  0.0000E+00  0.1576E-01  0.3820E-01  0.1093E+01  0.8208E+00  0.1084E+07  0.1073E+07  0.6742E+03  0.1579E+03  0.0000E+00  0.0000E+00  0.0000E+00  0.0000E+00  0.0000E+00  0.0000E+00  0.0000E+00  0.0000E+00  0.0000E+00  0.0000E+00  0.0000E+00  0.0000E+00  0.0000E+00  0.0000E+00  0.0000E+00  0.0000E+00  0.0000E+00  0.1207E+03  0.1479E+02  0.0000E+00  0.0000E+00
REACH    1        0     4  0.5330E+01  0.2298E+00  0.2297E+00  0.3076E-04  0.0000E+00  0.4425E+05  0.1149E+03  0.1839E+03  0.9160E+03  0.9138E+03  0.2071E+03  0.2063E+03  0.1135E+03  0.1135E+03  0.5166E+00  0.1550E+01  0.0000E+00  0.1981E-02  0.1846E+00  0.5518E+00  0.7818E+01  0.6096E+01  0.1526E+07  0.1497E+07  0.4665E+04  0.6030E+03  0.0000E+00  0.0000E+00  0.0000E+00  0.0000E+00  0.0000E+00  0.0000E+00  0.0000E+00  0.0000E+00  0.0000E+00  0.0000E+00  0.0000E+00  0.0000E+00  0.0000E+00  0.0000E+00  0.0000E+00  0.0000E+00  0.0000E+00  0.1029E+04  0.2068E+03  0.0000E+00  0.0000E+00
REACH    2        0     4  0.1473E+01  0.3011E-01  0.3011E-01  0.1607E-05  0.0000E+00  0.1228E+05  0.1228E+05  0.1088E+06  0.6162E+03  0.6156E+03  0.1402E+03  0.1400E+03  0.5164E+02  0.5163E+02  0.0000E+00  0.5068E+00  0.0000E+00  0.0000E+00  0.4176E-01  0.1253E+00  0.9271E+01  0.7526E+01  0.4700E+06  0.4662E+06  0.6936E+03  0.2305E+03  0.0000E+00  0.0000E+00  0.0000E+00  0.0000E+00  0.0000E+00  0.0000E+00  0.0000E+00  0.0000E+00  0.0000E+00  0.0000E+00  0.0000E+00  0.0000E+00  0.0000E+00  0.0000E+00  0.0000E+00  0.0000E+00  0.0000E+00  0.6677E+03  0.1401E+03  0.0000E+00  0.0000E+00
REACH    3        0     4  0.1377E+01  0.2979E-01  0.2978E-01  0.5755E-05  0.0000E+00  0.1371E+05  0.1371E+05  0.7805E+05  0.2272E+01  0.2269E+01  0.6692E+00  0.6678E+00  0.3018E+02  0.3017E+02  0.0000E+00  0.9816E-02  0.0000E+00  0.0000E+00  0.4523E-02  0.6446E-02  0.4432E-01  0.3606E-01  0.5819E+06  0.5760E+06  0.7407E+03  0.1891E+03  0.0000E+00  0.0000E+00  0.0000E+00  0.0000E+00  0.0000E+00  0.0000E+00  0.0000E+00  0.0000E+00  0.0000E+00  0.0000E+00  0.0000E+00  0.0000E+00  0.0000E+00  0.0000E+00  0.0000E+00  0.0000E+00  0.0000E+00  0.3245E+02  0.6742E+00  0.0000E+00  0.0000E+00
REACH    1        0     5  0.5330E+01  0.1459E+00  0.1459E+00  0.2636E-04  0.0000E+00  0.1287E+05  0.6101E+02  0.1554E+03  0.1033E+03  0.1030E+03  0.2415E+02  0.2403E+02  0.6990E+02  0.6989E+02  0.9279E-01  0.2783E+00  0.0000E+00  0.3569E-03  0.3677E-01  0.1092E+00  0.9911E+00  0.6313E+00  0.3945E+06  0.3845E+06  0.3166E+04  0.6061E+03  0.0000E+00  0.0000E+00  0.0000E+00  0.0000E+00  0.0000E+00  0.0000E+00  0.0000E+00  0.0000E+00  0.0000E+00  0.0000E+00  0.0000E+00  0.0000E+00  0.0000E+00  0.0000E+00  0.0000E+00  0.0000E+00  0.0000E+00  0.1732E+03  0.2414E+02  0.0000E+00  0.0000E+00
REACH    2        0     5  0.1473E+01  0.3271E-01  0.3271E-01  0.2069E-05  0.0000E+00  0.1008E+05  0.1008E+05  0.8251E+05  0.1032E+03  0.1031E+03  0.2411E+02  0.2407E+02  0.4045E+02  0.4045E+02  0.0000E+00  0.8501E-01  0.0000E+00  0.0000E+00  0.1238E-01  0.3473E-01  0.1175E+01  0.9910E+00  0.3537E+06  0.3509E+06  0.8122E+03  0.2157E+03  0.0000E+00  0.0000E+00  0.0000E+00  0.0000E+00  0.0000E+00  0.0000E+00  0.0000E+00  0.0000E+00  0.0000E+00  0.0000E+00  0.0000E+00  0.0000E+00  0.0000E+00  0.0000E+00  0.0000E+00  0.0000E+00  0.0000E+00  0.1436E+03  0.2410E+02  0.0000E+00  0.0000E+00
REACH    3        0     5  0.1377E+01  0.1649E-01  0.1649E-01  0.6262E-05  0.0000E+00  0.2511E+04  0.2511E+04  0.5351E+05  0.1401E+00  0.1397E+00  0.6224E-01  0.6200E-01  0.1518E+02  0.1517E+02  0.0000E+00  0.7781E-02  0.0000E+00  0.0000E+00  0.6861E-03  0.1620E-02  0.3277E-03  0.1581E-03  0.4340E+05  0.4263E+05  0.5559E+03  0.1592E+03  0.0000E+00  0.0000E+00  0.0000E+00  0.0000E+00  0.0000E+00  0.0000E+00  0.0000E+00  0.0000E+00  0.0000E+00  0.0000E+00  0.0000E+00  0.0000E+00  0.0000E+00  0.0000E+00  0.0000E+00  0.0000E+00  0.0000E+00  0.1532E+02  0.6362E-01  0.0000E+00  0.0000E+00
REACH    1        0     6  0.5330E+01  0.9056E-01  0.9052E-01  0.4314E-04  0.0000E+00  0.1922E+04  0.2792E+02  0.1177E+03  0.9446E+00  0.9404E+00  0.2242E+00  0.2228E+00  0.3340E+02  0.3339E+02  0.1362E-01  0.4083E-01  0.0000E+00  0.0000E+00  0.1805E-02  0.5411E-02  0.1304E-03  0.4834E-04  0.2225E+05  0.2154E+05  0.2136E+04  0.6870E+03  0.0000E+00  0.0000E+00  0.0000E+00  0.0000E+00  0.0000E+00  0.0000E+00  0.0000E+00  0.0000E+00  0.0000E+00  0.0000E+00  0.0000E+00  0.0000E+00  0.0000E+00  0.0000E+00  0.0000E+00  0.0000E+00  0.0000E+00  0.3437E+02  0.2282E+00  0.0000E+00  0.0000E+00
REACH    2        0     6  0.1473E+01  0.1677E-01  0.1677E-01  0.2956E-05  0.0000E+00  0.2463E+03  0.2463E+03  0.5286E+04  0.8590E+00  0.8574E+00  0.2057E+00  0.2052E+00  0.1482E+02  0.1482E+02  0.0000E+00  0.6364E-02  0.0000E+00  0.0000E+00  0.1984E-03  0.5810E-03  0.1358E-03  0.8639E-04  0.1108E+04  0.1094E+04  0.6107E+03  0.3306E+03  0.0000E+00  0.0000E+00  0.0000E+00  0.0000E+00  0.0000E+00  0.0000E+00  0.0000E+00  0.0000E+00  0.0000E+00  0.0000E+00  0.0000E+00  0.0000E+00  0.0000E+00  0.0000E+00  0.0000E+00  0.0000E+00  0.0000E+00  0.1569E+02  0.2058E+00  0.0000E+00  0.0000E+00
REACH    3        0     6  0.1377E+01  0.1266E-01  0.1265E-01  0.8481E-05  0.0000E+00  0.1666E+04  0.1666E+04  0.4913E+05  0.8621E-01  0.8590E-01  0.1881E-01  0.1871E-01  0.1097E+02  0.1097E+02  0.0000E+00  0.7251E-02  0.0000E+00  0.0000E+00  0.4528E-03  0.1202E-02  0.1329E-03  0.4397E-04  0.2165E+05  0.2115E+05  0.4073E+03  0.7475E+02  0.0000E+00  0.0000E+00  0.0000E+00  0.0000E+00  0.0000E+00  0.0000E+00  0.0000E+00  0.0000E+00  0.0000E+00  0.0000E+00  0.0000E+00  0.0000E+00  0.0000E+00  0.0000E+00  0.0000E+00  0.0000E+00  0.0000E+00  0.1106E+02  0.1991E-01  0.0000E+00  0.0000E+00
REACH    1        0     7  0.5330E+01  0.6475E-01  0.6472E-01  0.3446E-04  0.0000E+00  0.2295E+04  0.1826E+02  0.1061E+03  0.1993E+01  0.1982E+01  0.4770E+00  0.4730E+00  0.2685E+02  0.2684E+02  0.1553E-01  0.4657E-01  0.0000E+00  0.9921E-05  0.1627E-02  0.4868E-02  0.1318E-02  0.2945E-03  0.3237E+05  0.3105E+05  0.1622E+04  0.9373E+03  0.0000E+00  0.0000E+00  0.0000E+00  0.0000E+00  0.0000E+00  0.0000E+00  0.0000E+00  0.0000E+00  0.0000E+00  0.0000E+00  0.0000E+00  0.0000E+00  0.0000E+00  0.0000E+00  0.0000E+00  0.0000E+00  0.0000E+00  0.2887E+02  0.4779E+00  0.0000E+00  0.0000E+00
REACH    2        0     7  0.1473E+01  0.1291E-01  0.1291E-01  0.2554E-05  0.0000E+00  0.5444E+03  0.5444E+03  0.1323E+05  0.1934E+01  0.1930E+01  0.4646E+00  0.4632E+00  0.1180E+02  0.1180E+02  0.0000E+00  0.8250E-02  0.0000E+00  0.0000E+00  0.2495E-03  0.7261E-03  0.2157E-02  0.1286E-02  0.5334E+04  0.5258E+04  0.4790E+03  0.2690E+03  0.0000E+00  0.0000E+00  0.0000E+00  0.0000E+00  0.0000E+00  0.0000E+00  0.0000E+00  0.0000E+00  0.0000E+00  0.0000E+00  0.0000E+00  0.0000E+00  0.0000E+00  0.0000E+00  0.0000E+00  0.0000E+00  0.0000E+00  0.1374E+02  0.4639E+00  0.0000E+00  0.0000E+00
REACH    3        0     7  0.1377E+01  0.9582E-02  0.9575E-02  0.7376E-05  0.0000E+00  0.1746E+04  0.1746E+04  0.5347E+05  0.6313E-01  0.6289E-01  0.1386E-01  0.1379E-01  0.7597E+01  0.7591E+01  0.0000E+00  0.7283E-02  0.0000E+00  0.0000E+00  0.3515E-03  0.8927E-03  0.1393E-03  0.3202E-04  0.2783E+05  0.2711E+05  0.3161E+03  0.1099E+03  0.0000E+00  0.0000E+00  0.0000E+00  0.0000E+00  0.0000E+00  0.0000E+00  0.0000E+00  0.0000E+00  0.0000E+00  0.0000E+00  0.0000E+00  0.0000E+00  0.0000E+00  0.0000E+00  0.0000E+00  0.0000E+00  0.0000E+00  0.7661E+01  0.1468E-01  0.0000E+00  0.0000E+00
REACH    1        0     8  0.5330E+01  0.5196E-01  0.5194E-01  0.2599E-04  0.0000E+00  0.1004E+04  0.1394E+02  0.9904E+02  0.2816E+01  0.2802E+01  0.6731E+00  0.6680E+00  0.2249E+02  0.2248E+02  0.1707E-01  0.5119E-01  0.0000E+00  0.3681E-04  0.1194E-02  0.3537E-02  0.7370E-02  0.6163E-03  0.1256E+05  0.1208E+05  0.1371E+04  0.8595E+03  0.0000E+00  0.0000E+00  0.0000E+00  0.0000E+00  0.0000E+00  0.0000E+00  0.0000E+00  0.0000E+00  0.0000E+00  0.0000E+00  0.0000E+00  0.0000E+00  0.0000E+00  0.0000E+00  0.0000E+00  0.0000E+00  0.0000E+00  0.2533E+02  0.6716E+00  0.0000E+00  0.0000E+00
REACH    2        0     8  0.1473E+01  0.1093E-01  0.1093E-01  0.1972E-05  0.0000E+00  0.6879E+03  0.6879E+03  0.1940E+05  0.2816E+01  0.2810E+01  0.6733E+00  0.6711E+00  0.1091E+02  0.1090E+02  0.0000E+00  0.9950E-02  0.0000E+00  0.0000E+00  0.3759E-03  0.1119E-02  0.1472E-01  0.7368E-02  0.1005E+05  0.9891E+04  0.3912E+03  0.1835E+03  0.0000E+00  0.0000E+00  0.0000E+00  0.0000E+00  0.0000E+00  0.0000E+00  0.0000E+00  0.0000E+00  0.0000E+00  0.0000E+00  0.0000E+00  0.0000E+00  0.0000E+00  0.0000E+00  0.0000E+00  0.0000E+00  0.0000E+00  0.1372E+02  0.6723E+00  0.0000E+00  0.0000E+00
REACH    3        0     8  0.1377E+01  0.5475E-02  0.5469E-02  0.5796E-05  0.0000E+00  0.4578E+02  0.4578E+02  0.3021E+04  0.6915E-03  0.6877E-03  0.1951E-03  0.1887E-03  0.2515E+01  0.2513E+01  0.0000E+00  0.7122E-02  0.0000E+00  0.0000E+00  0.1122E-04  0.2066E-04  0.1045E-03  0.0000E+00  0.4026E+03  0.3920E+03  0.2070E+03  0.1519E+03  0.0000E+00  0.0000E+00  0.0000E+00  0.0000E+00  0.0000E+00  0.0000E+00  0.0000E+00  0.0000E+00  0.0000E+00  0.0000E+00  0.0000E+00  0.0000E+00  0.0000E+00  0.0000E+00  0.0000E+00  0.0000E+00  0.0000E+00  0.2520E+01  0.2093E-03  0.0000E+00  0.0000E+00
REACH    1        0     9  0.5330E+01  0.4926E-01  0.4923E-01  0.2687E-04  0.0000E+00  0.2347E+04  0.1228E+02  0.9351E+02  0.1854E+02  0.1846E+02  0.4220E+01  0.4190E+01  0.2336E+02  0.2334E+02  0.3814E-01  0.1144E+00  0.0000E+00  0.2308E-03  0.3543E-02  0.1059E-01  0.4028E+00  0.9069E-01  0.7160E+05  0.6897E+05  0.1213E+04  0.6523E+03  0.0000E+00  0.0000E+00  0.0000E+00  0.0000E+00  0.0000E+00  0.0000E+00  0.0000E+00  0.0000E+00  0.0000E+00  0.0000E+00  0.0000E+00  0.0000E+00  0.0000E+00  0.0000E+00  0.0000E+00  0.0000E+00  0.0000E+00  0.4192E+02  0.4200E+01  0.0000E+00  0.0000E+00
REACH    2        0     9  0.1473E+01  0.1007E-01  0.1007E-01  0.1652E-05  0.0000E+00  0.1191E+04  0.1191E+04  0.2706E+05  0.1850E+02  0.1848E+02  0.4213E+01  0.4203E+01  0.9246E+01  0.9245E+01  0.0000E+00  0.3098E-01  0.0000E+00  0.0000E+00  0.1003E-02  0.2924E-02  0.6652E+00  0.3963E+00  0.3396E+05  0.3346E+05  0.3395E+03  0.1911E+03  0.0000E+00  0.0000E+00  0.0000E+00  0.0000E+00  0.0000E+00  0.0000E+00  0.0000E+00  0.0000E+00  0.0000E+00  0.0000E+00  0.0000E+00  0.0000E+00  0.0000E+00  0.0000E+00  0.0000E+00  0.0000E+00  0.0000E+00  0.2775E+02  0.4205E+01  0.0000E+00  0.0000E+00
REACH    3        0     9  0.1377E+01  0.5080E-02  0.5075E-02  0.5105E-05  0.0000E+00  0.7918E+03  0.7918E+03  0.2663E+05  0.5680E-01  0.5704E-01  0.1486E-01  0.1487E-01  0.4382E+01  0.4378E+01  0.0000E+00  0.7153E-02  0.0000E+00  0.0000E+00  0.1934E-03  0.5145E-03  0.2720E-01  0.6492E-02  0.3379E+05  0.3305E+05  0.1623E+03  0.7406E+02  0.0000E+00  0.0000E+00  0.0000E+00  0.0000E+00  0.0000E+00  0.0000E+00  0.0000E+00  0.0000E+00  0.0000E+00  0.0000E+00  0.0000E+00  0.0000E+00  0.0000E+00  0.0000E+00  0.0000E+00  0.0000E+00  0.0000E+00  0.4442E+01  0.1538E-01  0.0000E+00  0.0000E+00
REACH    1        0    10  0.5330E+01  0.6697E-01  0.6695E-01  0.1322E-04  0.0000E+00  0.1349E+05  0.2076E+02  0.1070E+03  0.8020E+02  0.7992E+02  0.1807E+02  0.1797E+02  0.2967E+02  0.2966E+02  0.6477E-01  0.1943E+00  0.0000E+00  0.3284E-03  0.1627E-01  0.4562E-01  0.1015E+01  0.3112E+00  0.6298E+06  0.6120E+06  0.1427E+04  0.4671E+03  0.0000E+00  0.0000E+00  0.0000E+00  0.0000E+00  0.0000E+00  0.0000E+00  0.0000E+00  0.0000E+00  0.0000E+00  0.0000E+00  0.0000E+00  0.0000E+00  0.0000E+00  0.0000E+00  0.0000E+00  0.0000E+00  0.0000E+00  0.1098E+03  0.1802E+02  0.0000E+00  0.0000E+00
REACH    2        0    10  0.1473E+01  0.1013E-01  0.1013E-01  0.5320E-06  0.0000E+00  0.1763E+04  0.1763E+04  0.3509E+05  0.4389E+02  0.4384E+02  0.9945E+01  0.9925E+01  0.8500E+01  0.8500E+01  0.0000E+00  0.5642E-01  0.0000E+00  0.0000E+00  0.2508E-02  0.7477E-02  0.1659E+01  0.9199E+00  0.6874E+05  0.6788E+05  0.3080E+03  0.1210E+03  0.0000E+00  0.0000E+00  0.0000E+00  0.0000E+00  0.0000E+00  0.0000E+00  0.0000E+00  0.0000E+00  0.0000E+00  0.0000E+00  0.0000E+00  0.0000E+00  0.0000E+00  0.0000E+00  0.0000E+00  0.0000E+00  0.0000E+00  0.5240E+02  0.9932E+01  0.0000E+00  0.0000E+00
REACH    3        0    10  0.1377E+01  0.1061E-01  0.1060E-01  0.2185E-05  0.0000E+00  0.5850E+04  0.5850E+04  0.8541E+05  0.8118E+00  0.8109E+00  0.2099E+00  0.2094E+00  0.5600E+01  0.5598E+01  0.0000E+00  0.8348E-02  0.0000E+00  0.0000E+00  0.1919E-02  0.3107E-02  0.6679E-01  0.3276E-01  0.3831E+06  0.3779E+06  0.1877E+03  0.6266E+02  0.0000E+00  0.0000E+00  0.0000E+00  0.0000E+00  0.0000E+00  0.0000E+00  0.0000E+00  0.0000E+00  0.0000E+00  0.0000E+00  0.0000E+00  0.0000E+00  0.0000E+00  0.0000E+00  0.0000E+00  0.0000E+00  0.0000E+00  0.6417E+01  0.2125E+00  0.0000E+00  0.0000E+00
REACH    1        0    11  0.5330E+01  0.1321E+00  0.1321E+00  0.1316E-04  0.0000E+00  0.2800E+05  0.5288E+02  0.1456E+03  0.1969E+03  0.1964E+03  0.4423E+02  0.4404E+02  0.6031E+02  0.6030E+02  0.6943E-01  0.2083E+00  0.0000E+00  0.2017E-03  0.5472E-01  0.1405E+00  0.2097E+01  0.1287E+01  0.1242E+07  0.1213E+07  0.2344E+04  0.2020E+03  0.0000E+00  0.0000E+00  0.0000E+00  0.0000E+00  0.0000E+00  0.0000E+00  0.0000E+00  0.0000E+00  0.0000E+00  0.0000E+00  0.0000E+00  0.0000E+00  0.0000E+00  0.0000E+00  0.0000E+00  0.0000E+00  0.0000E+00  0.2569E+03  0.4418E+02  0.0000E+00  0.0000E+00
REACH    2        0    11  0.1473E+01  0.2226E-01  0.2226E-01  0.4146E-06  0.0000E+00  0.6629E+04  0.6629E+04  0.8719E+05  0.6360E+02  0.6355E+02  0.1451E+02  0.1448E+02  0.1895E+02  0.1895E+02  0.0000E+00  0.6059E-01  0.0000E+00  0.0000E+00  0.6197E-02  0.1698E-01  0.2182E+01  0.1728E+01  0.2529E+06  0.2505E+06  0.5396E+03  0.8128E+02  0.0000E+00  0.0000E+00  0.0000E+00  0.0000E+00  0.0000E+00  0.0000E+00  0.0000E+00  0.0000E+00  0.0000E+00  0.0000E+00  0.0000E+00  0.0000E+00  0.0000E+00  0.0000E+00  0.0000E+00  0.0000E+00  0.0000E+00  0.8256E+02  0.1450E+02  0.0000E+00  0.0000E+00
REACH    3        0    11  0.1377E+01  0.1888E-01  0.1888E-01  0.9483E-06  0.0000E+00  0.9066E+04  0.9066E+04  0.9981E+05  0.1261E+01  0.1259E+01  0.3120E+00  0.3112E+00  0.1514E+02  0.1514E+02  0.0000E+00  0.8835E-02  0.0000E+00  0.0000E+00  0.4357E-02  0.5830E-02  0.4668E-01  0.2593E-01  0.5576E+06  0.5513E+06  0.2754E+03  0.6700E+02  0.0000E+00  0.0000E+00  0.0000E+00  0.0000E+00  0.0000E+00  0.0000E+00  0.0000E+00  0.0000E+00  0.0000E+00  0.0000E+00  0.0000E+00  0.0000E+00  0.0000E+00  0.0000E+00  0.0000E+00  0.0000E+00  0.0000E+00  0.1641E+02  0.3170E+00  0.0000E+00  0.0000E+00
REACH    1        0    12  0.5330E+01  0.1835E+00  0.1835E+00  0.1389E-04  0.0000E+00  0.4459E+05  0.8829E+02  0.1690E+03  0.3180E+03  0.3173E+03  0.7110E+02  0.7084E+02  0.8186E+02  0.8185E+02  0.9784E-01  0.2935E+00  0.0000E+00  0.3184E-03  0.8177E-01  0.2127E+00  0.4068E+01  0.2962E+01  0.1874E+07  0.1836E+07  0.3242E+04  0.5966E+03  0.0000E+00  0.0000E+00  0.0000E+00  0.0000E+00  0.0000E+00  0.0000E+00  0.0000E+00  0.0000E+00  0.0000E+00  0.0000E+00  0.0000E+00  0.0000E+00  0.0000E+00  0.0000E+00  0.0000E+00  0.0000E+00  0.0000E+00  0.3994E+03  0.7105E+02  0.0000E+00  0.0000E+00
REACH    2        0    12  0.1473E+01  0.3128E-01  0.3128E-01  0.4389E-06  0.0000E+00  0.1003E+05  0.1003E+05  0.9436E+05  0.1158E+03  0.1157E+03  0.2623E+02  0.2620E+02  0.2564E+02  0.2564E+02  0.0000E+00  0.8864E-01  0.0000E+00  0.0000E+00  0.9279E-02  0.2427E-01  0.3707E+01  0.3169E+01  0.3893E+06  0.3864E+06  0.7673E+03  0.1871E+03  0.0000E+00  0.0000E+00  0.0000E+00  0.0000E+00  0.0000E+00  0.0000E+00  0.0000E+00  0.0000E+00  0.0000E+00  0.0000E+00  0.0000E+00  0.0000E+00  0.0000E+00  0.0000E+00  0.0000E+00  0.0000E+00  0.0000E+00  0.1414E+03  0.2622E+02  0.0000E+00  0.0000E+00
REACH    3        0    12  0.1377E+01  0.3216E-01  0.3216E-01  0.8111E-06  0.0000E+00  0.1590E+05  0.1590E+05  0.9867E+05  0.1398E+01  0.1396E+01  0.3428E+00  0.3421E+00  0.3099E+02  0.3098E+02  0.0000E+00  0.9200E-02  0.0000E+00  0.0000E+00  0.6009E-02  0.7416E-02  0.3459E-01  0.2677E-01  0.8074E+06  0.7998E+06  0.6933E+03  0.1562E+03  0.0000E+00  0.0000E+00  0.0000E+00  0.0000E+00  0.0000E+00  0.0000E+00  0.0000E+00  0.0000E+00  0.0000E+00  0.0000E+00  0.0000E+00  0.0000E+00  0.0000E+00  0.0000E+00  0.0000E+00  0.0000E+00  0.0000E+00  0.3239E+02  0.3495E+00  0.0000E+00  0.0000E+00
REACH    1        0  1982  0.5330E+01  0.1430E+00  0.1430E+00  0.2391E-04  0.0000E+00  0.3955E+06  0.7834E+03  0.1442E+03  0.3538E+05  0.3530E+05  0.7805E+04  0.7776E+04  0.8738E+03  0.8731E+03  0.2607E+02  0.7169E+02  0.0000E+00  0.1053E+00  0.3817E+01  0.1137E+02  0.5574E+03  0.4273E+03  0.1707E+08  0.1674E+08  0.3418E+05  0.8083E+04  0.0000E+00  0.0000E+00  0.0000E+00  0.0000E+00  0.0000E+00  0.0000E+00  0.0000E+00  0.0000E+00  0.0000E+00  0.0000E+00  0.0000E+00  0.0000E+00  0.0000E+00  0.0000E+00  0.0000E+00  0.0000E+00  0.0000E+00  0.3625E+05  0.7788E+04  0.0000E+00  0.0000E+00
REACH    2        0  1982  0.1473E+01  0.1817E-01  0.1817E-01  0.1354E-05  0.0000E+00  0.7177E+05  0.7177E+05  0.6764E+05  0.1512E+05  0.1510E+05  0.3343E+04  0.3335E+04  0.2535E+03  0.2533E+03  0.0000E+00  0.1994E+02  0.0000E+00  0.0000E+00  0.5914E+00  0.1766E+01  0.5104E+03  0.2947E+03  0.3276E+07  0.3244E+07  0.5480E+04  0.2042E+04  0.0000E+00  0.0000E+00  0.0000E+00  0.0000E+00  0.0000E+00  0.0000E+00  0.0000E+00  0.0000E+00  0.0000E+00  0.0000E+00  0.0000E+00  0.0000E+00  0.0000E+00  0.0000E+00  0.0000E+00  0.0000E+00  0.0000E+00  0.1537E+05  0.3337E+04  0.0000E+00  0.0000E+00
REACH    3        0  1982  0.1377E+01  0.2063E-01  0.2062E-01  0.3954E-05  0.0000E+00  0.1291E+06  0.1291E+06  0.7511E+05  0.5682E+04  0.5676E+04  0.1258E+04  0.1255E+04  0.2423E+03  0.2422E+03  0.0000E+00  0.6135E+01  0.0000E+00  0.0000E+00  0.3275E+00  0.9276E+00  0.2167E+03  0.1637E+03  0.7078E+07  0.7009E+07  0.4844E+04  0.1487E+04  0.0000E+00  0.0000E+00  0.0000E+00  0.0000E+00  0.0000E+00  0.0000E+00  0.0000E+00  0.0000E+00  0.0000E+00  0.0000E+00  0.0000E+00  0.0000E+00  0.0000E+00  0.0000E+00  0.0000E+00  0.0000E+00  0.0000E+00  0.5924E+04  0.1256E+04  0.0000E+00  0.0000E+00
REACH    1        0     1  0.5330E+01  0.3021E+00  0.3021E+00  0.1304E-04  0.0000E+00  0.1139E+06  0.1803E+03  0.2046E+03  0.1424E+05  0.1421E+05  0.3126E+04  0.3115E+04  0.9744E+02  0.9725E+02  0.6145E+01  0.1843E+02  0.0000E+00  0.2381E-01  0.1701E+01  0.4988E+01  0.2107E+03  0.1700E+03  0.5006E+07  0.4919E+07  0.4318E+04  0.3703E+03  0.0000E+00  0.0000E+00  0.0000E+00  0.0000E+00  0.0000E+00  0.0000E+00  0.0000E+00  0.0000E+00  0.0000E+00  0.0000E+00  0.0000E+00  0.0000E+00  0.0000E+00  0.0000E+00  0.0000E+00  0.0000E+00  0.0000E+00  0.1433E+05  0.3120E+04  0.0000E+00  0.0000E+00
REACH    2        0     1  0.1473E+01  0.7250E-01  0.7250E-01  0.4091E-06  0.0000E+00  0.3733E+05  0.3733E+05  0.1261E+06  0.4636E+04  0.4633E+04  0.1019E+04  0.1018E+04  0.4319E+02  0.4316E+02  0.0000E+00  0.2697E+01  0.0000E+00  0.0000E+00  0.2751E+00  0.7695E+00  0.9847E+02  0.8982E+02  0.1780E+07  0.1770E+07  0.1351E+04  0.2584E+03  0.0000E+00  0.0000E+00  0.0000E+00  0.0000E+00  0.0000E+00  0.0000E+00  0.0000E+00  0.0000E+00  0.0000E+00  0.0000E+00  0.0000E+00  0.0000E+00  0.0000E+00  0.0000E+00  0.0000E+00  0.0000E+00  0.0000E+00  0.4679E+04  0.1019E+04  0.0000E+00  0.0000E+00
REACH    3        0     1  0.1377E+01  0.4416E-01  0.4416E-01  0.7505E-06  0.0000E+00  0.2639E+05  0.2639E+05  0.1124E+06  0.3462E+04  0.3458E+04  0.7586E+03  0.7572E+03  0.2731E+02  0.2729E+02  0.0000E+00  0.3448E+01  0.0000E+00  0.0000E+00  0.1574E+00  0.4547E+00  0.7363E+02  0.6345E+02  0.1270E+07  0.1259E+07  0.8425E+03  0.2288E+03  0.0000E+00  0.0000E+00  0.0000E+00  0.0000E+00  0.0000E+00  0.0000E+00  0.0000E+00  0.0000E+00  0.0000E+00  0.0000E+00  0.0000E+00  0.0000E+00  0.0000E+00  0.0000E+00  0.0000E+00  0.0000E+00  0.0000E+00  0.3488E+04  0.7577E+03  0.0000E+00  0.0000E+00
REACH    1        0     2  0.5330E+01  0.3800E+00  0.3800E+00  0.2757E-04  0.0000E+00  0.1089E+06  0.2269E+03  0.2323E+03  0.2257E+04  0.2253E+04  0.5048E+03  0.5036E+03  0.7083E+02  0.7081E+02  0.4531E+00  0.1359E+01  0.0000E+00  0.7617E-03  0.4935E+00  0.1278E+01  0.4134E+02  0.3837E+02  0.4911E+07  0.4842E+07  0.4749E+04  0.4254E+03  0.0000E+00  0.0000E+00  0.0000E+00  0.0000E+00  0.0000E+00  0.0000E+00  0.0000E+00  0.0000E+00  0.0000E+00  0.0000E+00  0.0000E+00  0.0000E+00  0.0000E+00  0.0000E+00  0.0000E+00  0.0000E+00  0.0000E+00  0.2325E+04  0.5049E+03  0.0000E+00  0.0000E+00
REACH    2        0     2  0.1473E+01  0.7005E-01  0.7005E-01  0.1009E-05  0.0000E+00  0.2456E+05  0.2456E+05  0.1164E+06  0.7005E+02  0.7000E+02  0.1765E+02  0.1763E+02  0.2853E+02  0.2853E+02  0.0000E+00  0.4691E-01  0.0000E+00  0.0000E+00  0.2538E-01  0.4329E-01  0.1011E+01  0.9251E+00  0.1032E+07  0.1026E+07  0.1388E+04  0.3258E+03  0.0000E+00  0.0000E+00  0.0000E+00  0.0000E+00  0.0000E+00  0.0000E+00  0.0000E+00  0.0000E+00  0.0000E+00  0.0000E+00  0.0000E+00  0.0000E+00  0.0000E+00  0.0000E+00  0.0000E+00  0.0000E+00  0.0000E+00  0.9857E+02  0.1767E+02  0.0000E+00  0.0000E+00
REACH    3        0     2  0.1377E+01  0.5300E-01  0.5299E-01  0.1653E-05  0.0000E+00  0.2901E+05  0.2901E+05  0.1127E+06  0.6436E+03  0.6432E+03  0.1440E+03  0.1438E+03  0.1999E+02  0.1999E+02  0.0000E+00  0.4061E+00  0.0000E+00  0.0000E+00  0.4178E-01  0.1133E+00  0.1882E+02  0.1765E+02  0.1469E+07  0.1459E+07  0.8243E+03  0.1864E+03  0.0000E+00  0.0000E+00  0.0000E+00  0.0000E+00  0.0000E+00  0.0000E+00  0.0000E+00  0.0000E+00  0.0000E+00  0.0000E+00  0.0000E+00  0.0000E+00  0.0000E+00  0.0000E+00  0.0000E+00  0.0000E+00  0.0000E+00  0.6636E+03  0.1440E+03  0.0000E+00  0.0000E+00
REACH    1        0     3  0.5330E+01  0.4431E+00  0.4431E+00  0.1373E-04  0.0000E+00  0.1735E+06  0.3097E+03  0.2495E+03  0.4016E+03  0.4009E+03  0.9167E+02  0.9141E+02  0.7265E+02  0.7265E+02  0.8056E-01  0.2417E+00  0.0000E+00  0.0000E+00  0.3284E+00  0.5544E+00  0.3316E+01  0.2943E+01  0.7015E+07  0.6913E+07  0.6806E+04  0.1254E+04  0.0000E+00  0.0000E+00  0.0000E+00  0.0000E+00  0.0000E+00  0.0000E+00  0.0000E+00  0.0000E+00  0.0000E+00  0.0000E+00  0.0000E+00  0.0000E+00  0.0000E+00  0.0000E+00  0.0000E+00  0.0000E+00  0.0000E+00  0.4738E+03  0.9197E+02  0.0000E+00  0.0000E+00
REACH    2        0     3  0.1473E+01  0.7324E-01  0.7324E-01  0.7196E-06  0.0000E+00  0.3187E+05  0.3187E+05  0.1051E+06  0.9625E+01  0.9619E+01  0.2642E+01  0.2640E+01  0.2409E+02  0.2409E+02  0.0000E+00  0.1166E-01  0.0000E+00  0.0000E+00  0.1394E-01  0.1706E-01  0.1291E+00  0.1178E+00  0.1333E+07  0.1326E+07  0.1694E+04  0.3919E+03  0.0000E+00  0.0000E+00  0.0000E+00  0.0000E+00  0.0000E+00  0.0000E+00  0.0000E+00  0.0000E+00  0.0000E+00  0.0000E+00  0.0000E+00  0.0000E+00  0.0000E+00  0.0000E+00  0.0000E+00  0.0000E+00  0.0000E+00  0.3372E+02  0.2657E+01  0.0000E+00  0.0000E+00
REACH    3        0     3  0.1377E+01  0.6210E-01  0.6209E-01  0.9874E-06  0.0000E+00  0.3593E+05  0.3593E+05  0.1283E+06  0.8015E+02  0.8008E+02  0.1890E+02  0.1888E+02  0.2385E+02  0.2385E+02  0.0000E+00  0.6890E-01  0.0000E+00  0.0000E+00  0.1917E-01  0.4208E-01  0.1887E+01  0.1699E+01  0.1681E+07  0.1668E+07  0.1080E+04  0.2821E+03  0.0000E+00  0.0000E+00  0.0000E+00  0.0000E+00  0.0000E+00  0.0000E+00  0.0000E+00  0.0000E+00  0.0000E+00  0.0000E+00  0.0000E+00  0.0000E+00  0.0000E+00  0.0000E+00  0.0000E+00  0.0000E+00  0.0000E+00  0.1040E+03  0.1892E+02  0.0000E+00  0.0000E+00
REACH    1        0     4  0.5330E+01  0.3808E+00  0.3808E+00  0.2352E-04  0.0000E+00  0.1206E+06  0.2377E+03  0.2341E+03  0.8751E+02  0.8733E+02  0.1950E+02  0.1944E+02  0.4448E+02  0.4447E+02  0.2695E-01  0.8085E-01  0.0000E+00  0.0000E+00  0.1532E+00  0.2099E+00  0.4385E+00  0.3852E+00  0.4218E+07  0.4153E+07  0.6705E+04  0.1070E+04  0.0000E+00  0.0000E+00  0.0000E+00  0.0000E+00  0.0000E+00  0.0000E+00  0.0000E+00  0.0000E+00  0.0000E+00  0.0000E+00  0.0000E+00  0.0000E+00  0.0000E+00  0.0000E+00  0.0000E+00  0.0000E+00  0.0000E+00  0.1319E+03  0.1965E+02  0.0000E+00  0.0000E+00
REACH    2        0     4  0.1473E+01  0.6564E-01  0.6564E-01  0.1592E-05  0.0000E+00  0.3074E+05  0.3074E+05  0.1105E+06  0.3283E+01  0.3281E+01  0.7755E+00  0.7747E+00  0.1371E+02  0.1371E+02  0.0000E+00  0.7892E-02  0.0000E+00  0.0000E+00  0.1047E-01  0.1182E-01  0.4129E-01  0.3727E-01  0.1112E+07  0.1106E+07  0.1586E+04  0.5027E+03  0.0000E+00  0.0000E+00  0.0000E+00  0.0000E+00  0.0000E+00  0.0000E+00  0.0000E+00  0.0000E+00  0.0000E+00  0.0000E+00  0.0000E+00  0.0000E+00  0.0000E+00  0.0000E+00  0.0000E+00  0.0000E+00  0.0000E+00  0.1700E+02  0.7865E+00  0.0000E+00  0.0000E+00
REACH    3        0     4  0.1377E+01  0.5193E-01  0.5192E-01  0.4274E-05  0.0000E+00  0.2983E+05  0.2983E+05  0.1259E+06  0.1358E+02  0.1357E+02  0.3238E+01  0.3232E+01  0.1161E+02  0.1161E+02  0.0000E+00  0.1906E-01  0.0000E+00  0.0000E+00  0.7864E-02  0.1307E-01  0.2749E+00  0.2456E+00  0.1226E+07  0.1214E+07  0.1133E+04  0.3115E+03  0.0000E+00  0.0000E+00  0.0000E+00  0.0000E+00  0.0000E+00  0.0000E+00  0.0000E+00  0.0000E+00  0.0000E+00  0.0000E+00  0.0000E+00  0.0000E+00  0.0000E+00  0.0000E+00  0.0000E+00  0.0000E+00  0.0000E+00  0.2519E+02  0.3246E+01  0.0000E+00  0.0000E+00
REACH    1        0     5  0.5330E+01  0.2035E+00  0.2035E+00  0.2632E-04  0.0000E+00  0.2085E+05  0.9508E+02  0.1733E+03  0.1998E+01  0.1992E+01  0.4420E+00  0.4400E+00  0.1758E+02  0.1758E+02  0.1507E-01  0.4521E-01  0.0000E+00  0.0000E+00  0.9757E-02  0.1666E-01  0.1434E-01  0.1032E-01  0.6304E+06  0.6158E+06  0.4139E+04  0.6093E+03  0.0000E+00  0.0000E+00  0.0000E+00  0.0000E+00  0.0000E+00  0.0000E+00  0.0000E+00  0.0000E+00  0.0000E+00  0.0000E+00  0.0000E+00  0.0000E+00  0.0000E+00  0.0000E+00  0.0000E+00  0.0000E+00  0.0000E+00  0.1962E+02  0.4567E+00  0.0000E+00  0.0000E+00
REACH    2        0     5  0.1473E+01  0.4970E-01  0.4970E-01  0.2067E-05  0.0000E+00  0.1525E+05  0.1525E+05  0.8355E+05  0.1566E+01  0.1565E+01  0.3481E+00  0.3476E+00  0.6023E+01  0.6023E+01  0.0000E+00  0.6891E-02  0.0000E+00  0.0000E+00  0.6218E-02  0.7172E-02  0.1488E-01  0.1318E-01  0.5105E+06  0.5073E+06  0.1275E+04  0.2474E+03  0.0000E+00  0.0000E+00  0.0000E+00  0.0000E+00  0.0000E+00  0.0000E+00  0.0000E+00  0.0000E+00  0.0000E+00  0.0000E+00  0.0000E+00  0.0000E+00  0.0000E+00  0.0000E+00  0.0000E+00  0.0000E+00  0.0000E+00  0.7595E+01  0.3548E+00  0.0000E+00  0.0000E+00
REACH    3        0     5  0.1377E+01  0.2469E-01  0.2469E-01  0.6211E-05  0.0000E+00  0.5365E+04  0.5365E+04  0.7287E+05  0.3225E+00  0.3219E+00  0.7075E-01  0.7057E-01  0.2657E+01  0.2656E+01  0.0000E+00  0.8180E-02  0.0000E+00  0.0000E+00  0.1279E-02  0.2204E-02  0.1654E-02  0.1159E-02  0.1243E+06  0.1227E+06  0.7752E+03  0.1973E+03  0.0000E+00  0.0000E+00  0.0000E+00  0.0000E+00  0.0000E+00  0.0000E+00  0.0000E+00  0.0000E+00  0.0000E+00  0.0000E+00  0.0000E+00  0.0000E+00  0.0000E+00  0.0000E+00  0.0000E+00  0.0000E+00  0.0000E+00  0.2986E+01  0.7277E-01  0.0000E+00  0.0000E+00
REACH    1        0     6  0.5330E+01  0.1245E+00  0.1244E+00  0.2543E-04  0.0000E+00  0.2083E+04  0.4613E+02  0.1430E+03  0.9387E-01  0.9352E-01  0.2049E-01  0.2038E-01  0.9683E+01  0.9681E+01  0.1257E-01  0.3772E-01  0.0000E+00  0.0000E+00  0.1543E-02  0.4629E-02  0.3655E-04  0.1563E-04  0.1984E+05  0.1929E+05  0.2998E+04  0.1040E+04  0.0000E+00  0.0000E+00  0.0000E+00  0.0000E+00  0.0000E+00  0.0000E+00  0.0000E+00  0.0000E+00  0.0000E+00  0.0000E+00  0.0000E+00  0.0000E+00  0.0000E+00  0.0000E+00  0.0000E+00  0.0000E+00  0.0000E+00  0.9813E+01  0.2501E-01  0.0000E+00  0.0000E+00
REACH    2        0     6  0.1473E+01  0.2345E-01  0.2345E-01  0.2133E-05  0.0000E+00  0.3185E+03  0.3185E+03  0.4799E+04  0.2443E-01  0.2441E-01  0.5505E-02  0.5495E-02  0.2240E+01  0.2240E+01  0.0000E+00  0.5351E-02  0.0000E+00  0.0000E+00  0.1617E-03  0.4256E-03  0.1328E-05  0.5117E-06  0.1233E+04  0.1222E+04  0.8554E+03  0.4584E+03  0.0000E+00  0.0000E+00  0.0000E+00  0.0000E+00  0.0000E+00  0.0000E+00  0.0000E+00  0.0000E+00  0.0000E+00  0.0000E+00  0.0000E+00  0.0000E+00  0.0000E+00  0.0000E+00  0.0000E+00  0.0000E+00  0.0000E+00  0.2269E+01  0.5921E-02  0.0000E+00  0.0000E+00
REACH    3        0     6  0.1377E+01  0.1621E-01  0.1620E-01  0.6602E-05  0.0000E+00  0.1748E+04  0.1748E+04  0.4089E+05  0.6956E-01  0.6937E-01  0.1502E-01  0.1496E-01  0.1560E+01  0.1559E+01  0.0000E+00  0.7224E-02  0.0000E+00  0.0000E+00  0.4055E-03  0.1106E-02  0.7460E-04  0.3604E-04  0.1895E+05  0.1860E+05  0.5441E+03  0.1437E+03  0.0000E+00  0.0000E+00  0.0000E+00  0.0000E+00  0.0000E+00  0.0000E+00  0.0000E+00  0.0000E+00  0.0000E+00  0.0000E+00  0.0000E+00  0.0000E+00  0.0000E+00  0.0000E+00  0.0000E+00  0.0000E+00  0.0000E+00  0.1636E+01  0.1606E-01  0.0000E+00  0.0000E+00
REACH    1        0     7  0.5330E+01  0.1006E+00  0.1006E+00  0.2477E-04  0.0000E+00  0.4976E+04  0.3563E+02  0.1307E+03  0.2314E+00  0.2304E+00  0.5136E-01  0.5105E-01  0.1304E+02  0.1304E+02  0.1371E-01  0.4111E-01  0.0000E+00  0.0000E+00  0.2462E-02  0.6834E-02  0.2401E-03  0.1023E-03  0.7563E+05  0.7347E+05  0.2308E+04  0.8377E+03  0.0000E+00  0.0000E+00  0.0000E+00  0.0000E+00  0.0000E+00  0.0000E+00  0.0000E+00  0.0000E+00  0.0000E+00  0.0000E+00  0.0000E+00  0.0000E+00  0.0000E+00  0.0000E+00  0.0000E+00  0.0000E+00  0.0000E+00  0.1331E+02  0.5788E-01  0.0000E+00  0.0000E+00
REACH    2        0     7  0.1473E+01  0.2077E-01  0.2076E-01  0.2204E-05  0.0000E+00  0.2259E+04  0.2259E+04  0.3751E+05  0.1544E+00  0.1541E+00  0.3476E-01  0.3468E-01  0.2836E+01  0.2835E+01  0.0000E+00  0.5930E-02  0.0000E+00  0.0000E+00  0.8377E-03  0.1455E-02  0.1951E-03  0.1352E-03  0.2855E+05  0.2826E+05  0.7169E+03  0.2145E+03  0.0000E+00  0.0000E+00  0.0000E+00  0.0000E+00  0.0000E+00  0.0000E+00  0.0000E+00  0.0000E+00  0.0000E+00  0.0000E+00  0.0000E+00  0.0000E+00  0.0000E+00  0.0000E+00  0.0000E+00  0.0000E+00  0.0000E+00  0.2995E+01  0.3614E-01  0.0000E+00  0.0000E+00
REACH    3        0     7  0.1377E+01  0.1264E-01  0.1263E-01  0.6867E-05  0.0000E+00  0.2457E+04  0.2457E+04  0.5262E+05  0.7357E-01  0.7335E-01  0.1590E-01  0.1583E-01  0.1188E+01  0.1187E+01  0.0000E+00  0.7778E-02  0.0000E+00  0.0000E+00  0.4274E-03  0.9448E-03  0.2345E-03  0.1048E-03  0.4746E+05  0.4657E+05  0.4158E+03  0.1656E+03  0.0000E+00  0.0000E+00  0.0000E+00  0.0000E+00  0.0000E+00  0.0000E+00  0.0000E+00  0.0000E+00  0.0000E+00  0.0000E+00  0.0000E+00  0.0000E+00  0.0000E+00  0.0000E+00  0.0000E+00  0.0000E+00  0.0000E+00  0.1268E+01  0.1677E-01  0.0000E+00  0.0000E+00
REACH    1        0     8  0.5330E+01  0.7690E-01  0.7688E-01  0.1940E-04  0.0000E+00  0.2814E+04  0.2291E+02  0.1106E+03  0.1756E+00  0.1748E+00  0.4021E-01  0.3994E-01  0.1091E+02  0.1090E+02  0.1359E-01  0.4075E-01  0.0000E+00  0.0000E+00  0.1401E-02  0.4121E-02  0.2151E-03  0.8364E-04  0.3799E+05  0.3671E+05  0.1839E+04  0.8725E+03  0.0000E+00  0.0000E+00  0.0000E+00  0.0000E+00  0.0000E+00  0.0000E+00  0.0000E+00  0.0000E+00  0.0000E+00  0.0000E+00  0.0000E+00  0.0000E+00  0.0000E+00  0.0000E+00  0.0000E+00  0.0000E+00  0.0000E+00  0.1112E+02  0.4406E-01  0.0000E+00  0.0000E+00
REACH    2        0     8  0.1473E+01  0.1723E-01  0.1723E-01  0.1746E-05  0.0000E+00  0.1869E+04  0.1869E+04  0.3550E+05  0.1147E+00  0.1145E+00  0.2603E-01  0.2597E-01  0.2415E+01  0.2415E+01  0.0000E+00  0.5939E-02  0.0000E+00  0.0000E+00  0.6249E-03  0.1193E-02  0.2069E-03  0.1387E-03  0.2699E+05  0.2668E+05  0.5879E+03  0.1903E+03  0.0000E+00  0.0000E+00  0.0000E+00  0.0000E+00  0.0000E+00  0.0000E+00  0.0000E+00  0.0000E+00  0.0000E+00  0.0000E+00  0.0000E+00  0.0000E+00  0.0000E+00  0.0000E+00  0.0000E+00  0.0000E+00  0.0000E+00  0.2535E+01  0.2716E-01  0.0000E+00  0.0000E+00
REACH    3        0     8  0.1377E+01  0.6950E-02  0.6944E-02  0.5331E-05  0.0000E+00  0.1220E+03  0.1220E+03  0.6001E+04  0.4762E-01  0.4750E-01  0.1135E-01  0.1131E-01  0.6971E+00  0.6966E+00  0.0000E+00  0.7646E-02  0.0000E+00  0.0000E+00  0.4211E-04  0.1076E-03  0.1569E-02  0.7314E-04  0.2747E+04  0.2698E+04  0.2596E+03  0.1468E+03  0.0000E+00  0.0000E+00  0.0000E+00  0.0000E+00  0.0000E+00  0.0000E+00  0.0000E+00  0.0000E+00  0.0000E+00  0.0000E+00  0.0000E+00  0.0000E+00  0.0000E+00  0.0000E+00  0.0000E+00  0.0000E+00  0.0000E+00  0.7517E+00  0.1141E-01  0.0000E+00  0.0000E+00
REACH    1        0     9  0.5330E+01  0.6694E-01  0.6692E-01  0.2171E-04  0.0000E+00  0.5092E+04  0.1960E+02  0.1123E+03  0.5391E+00  0.5369E+00  0.1342E+00  0.1333E+00  0.1074E+02  0.1074E+02  0.1369E-01  0.4104E-01  0.0000E+00  0.0000E+00  0.2177E-02  0.6101E-02  0.7674E-02  0.3347E-02  0.1341E+06  0.1300E+06  0.1503E+04  0.6419E+03  0.0000E+00  0.0000E+00  0.0000E+00  0.0000E+00  0.0000E+00  0.0000E+00  0.0000E+00  0.0000E+00  0.0000E+00  0.0000E+00  0.0000E+00  0.0000E+00  0.0000E+00  0.0000E+00  0.0000E+00  0.0000E+00  0.0000E+00  0.1132E+02  0.1394E+00  0.0000E+00  0.0000E+00
REACH    2        0     9  0.1473E+01  0.1548E-01  0.1548E-01  0.1574E-05  0.0000E+00  0.2140E+04  0.2140E+04  0.4051E+05  0.1607E+00  0.1605E+00  0.4015E-01  0.4006E-01  0.2120E+01  0.2120E+01  0.0000E+00  0.5781E-02  0.0000E+00  0.0000E+00  0.5881E-03  0.1115E-02  0.6502E-02  0.4664E-02  0.6354E+05  0.6287E+05  0.5040E+03  0.2028E+03  0.0000E+00  0.0000E+00  0.0000E+00  0.0000E+00  0.0000E+00  0.0000E+00  0.0000E+00  0.0000E+00  0.0000E+00  0.0000E+00  0.0000E+00  0.0000E+00  0.0000E+00  0.0000E+00  0.0000E+00  0.0000E+00  0.0000E+00  0.2286E+01  0.4118E-01  0.0000E+00  0.0000E+00
REACH    3        0     9  0.1377E+01  0.6742E-02  0.6739E-02  0.3873E-05  0.0000E+00  0.1225E+04  0.1225E+04  0.4249E+05  0.2965E+00  0.2958E+00  0.7624E-01  0.7595E-01  0.1026E+01  0.1025E+01  0.0000E+00  0.7904E-02  0.0000E+00  0.0000E+00  0.2334E-03  0.6914E-03  0.1102E-01  0.2906E-02  0.3308E+05  0.3239E+05  0.2131E+03  0.8256E+02  0.0000E+00  0.0000E+00  0.0000E+00  0.0000E+00  0.0000E+00  0.0000E+00  0.0000E+00  0.0000E+00  0.0000E+00  0.0000E+00  0.0000E+00  0.0000E+00  0.0000E+00  0.0000E+00  0.0000E+00  0.0000E+00  0.0000E+00  0.1329E+01  0.7664E-01  0.0000E+00  0.0000E+00
REACH    1        0    10  0.5330E+01  0.6771E-01  0.6769E-01  0.2148E-04  0.0000E+00  0.8106E+04  0.2074E+02  0.1075E+03  0.4078E+01  0.4063E+01  0.9537E+00  0.9484E+00  0.1243E+02  0.1243E+02  0.1669E-01  0.5005E-01  0.0000E+00  0.8898E-05  0.7183E-02  0.1490E-01  0.8348E-01  0.4002E-01  0.3503E+06  0.3398E+06  0.1487E+04  0.6133E+03  0.0000E+00  0.0000E+00  0.0000E+00  0.0000E+00  0.0000E+00  0.0000E+00  0.0000E+00  0.0000E+00  0.0000E+00  0.0000E+00  0.0000E+00  0.0000E+00  0.0000E+00  0.0000E+00  0.0000E+00  0.0000E+00  0.0000E+00  0.1654E+02  0.9633E+00  0.0000E+00  0.0000E+00
REACH    2        0    10  0.1473E+01  0.1269E-01  0.1269E-01  0.1029E-05  0.0000E+00  0.1478E+04  0.1478E+04  0.2211E+05  0.2731E+00  0.2727E+00  0.7110E-01  0.7096E-01  0.1294E+01  0.1294E+01  0.0000E+00  0.5810E-02  0.0000E+00  0.0000E+00  0.6203E-03  0.1116E-02  0.9293E-02  0.6541E-02  0.7198E+05  0.7118E+05  0.4368E+03  0.2060E+03  0.0000E+00  0.0000E+00  0.0000E+00  0.0000E+00  0.0000E+00  0.0000E+00  0.0000E+00  0.0000E+00  0.0000E+00  0.0000E+00  0.0000E+00  0.0000E+00  0.0000E+00  0.0000E+00  0.0000E+00  0.0000E+00  0.0000E+00  0.1572E+01  0.7207E-01  0.0000E+00  0.0000E+00
REACH    3        0    10  0.1377E+01  0.9444E-02  0.9441E-02  0.2266E-05  0.0000E+00  0.3467E+04  0.3467E+04  0.6239E+05  0.2896E+01  0.2892E+01  0.6849E+00  0.6834E+00  0.1211E+01  0.1211E+01  0.0000E+00  0.1088E-01  0.0000E+00  0.0000E+00  0.1291E-02  0.3098E-02  0.1132E+00  0.7565E-01  0.1914E+06  0.1889E+06  0.2284E+03  0.5434E+02  0.0000E+00  0.0000E+00  0.0000E+00  0.0000E+00  0.0000E+00  0.0000E+00  0.0000E+00  0.0000E+00  0.0000E+00  0.0000E+00  0.0000E+00  0.0000E+00  0.0000E+00  0.0000E+00  0.0000E+00  0.0000E+00  0.0000E+00  0.4114E+01  0.6864E+00  0.0000E+00  0.0000E+00
REACH    1        0    11  0.5330E+01  0.7367E-01  0.7364E-01  0.2830E-04  0.0000E+00  0.1308E+05  0.2398E+02  0.1103E+03  0.7577E+01  0.7554E+01  0.1757E+01  0.1749E+01  0.1343E+02  0.1343E+02  0.1902E-01  0.5703E-01  0.0000E+00  0.1776E-04  0.1167E-01  0.2271E-01  0.1847E+00  0.1099E+00  0.6628E+06  0.6449E+06  0.1494E+04  0.6700E+03  0.0000E+00  0.0000E+00  0.0000E+00  0.0000E+00  0.0000E+00  0.0000E+00  0.0000E+00  0.0000E+00  0.0000E+00  0.0000E+00  0.0000E+00  0.0000E+00  0.0000E+00  0.0000E+00  0.0000E+00  0.0000E+00  0.0000E+00  0.2104E+02  0.1772E+01  0.0000E+00  0.0000E+00
REACH    2        0    11  0.1473E+01  0.1162E-01  0.1162E-01  0.1145E-05  0.0000E+00  0.2781E+04  0.2781E+04  0.4300E+05  0.2112E+00  0.2110E+00  0.5424E-01  0.5413E-01  0.1743E+01  0.1743E+01  0.0000E+00  0.5586E-02  0.0000E+00  0.0000E+00  0.6930E-03  0.1217E-02  0.6522E-02  0.3930E-02  0.1367E+06  0.1353E+06  0.3357E+03  0.1573E+03  0.0000E+00  0.0000E+00  0.0000E+00  0.0000E+00  0.0000E+00  0.0000E+00  0.0000E+00  0.0000E+00  0.0000E+00  0.0000E+00  0.0000E+00  0.0000E+00  0.0000E+00  0.0000E+00  0.0000E+00  0.0000E+00  0.0000E+00  0.1959E+01  0.5535E-01  0.0000E+00  0.0000E+00
REACH    3        0    11  0.1377E+01  0.1494E-01  0.1494E-01  0.1806E-05  0.0000E+00  0.6345E+04  0.6345E+04  0.6896E+05  0.5853E+01  0.5846E+01  0.1374E+01  0.1372E+01  0.1245E+01  0.1245E+01  0.0000E+00  0.1343E-01  0.0000E+00  0.0000E+00  0.2842E-02  0.5644E-02  0.2312E+00  0.1782E+00  0.3972E+06  0.3928E+06  0.2603E+03  0.9929E+02  0.0000E+00  0.0000E+00  0.0000E+00  0.0000E+00  0.0000E+00  0.0000E+00  0.0000E+00  0.0000E+00  0.0000E+00  0.0000E+00  0.0000E+00  0.0000E+00  0.0000E+00  0.0000E+00  0.0000E+00  0.0000E+00  0.0000E+00  0.7104E+01  0.1378E+01  0.0000E+00  0.0000E+00
REACH    1        0    12  0.5330E+01  0.2108E+00  0.2108E+00  0.1236E-04  0.0000E+00  0.6878E+05  0.1096E+03  0.1716E+03  0.4967E+02  0.4955E+02  0.1086E+02  0.1082E+02  0.5899E+02  0.5899E+02  0.2016E-01  0.6048E-01  0.0000E+00  0.0000E+00  0.1045E+00  0.1434E+00  0.4481E+00  0.3531E+00  0.3053E+07  0.2997E+07  0.3595E+04  0.3782E+03  0.0000E+00  0.0000E+00  0.0000E+00  0.0000E+00  0.0000E+00  0.0000E+00  0.0000E+00  0.0000E+00  0.0000E+00  0.0000E+00  0.0000E+00  0.0000E+00  0.0000E+00  0.0000E+00  0.0000E+00  0.0000E+00  0.0000E+00  0.1086E+03  0.1096E+02  0.0000E+00  0.0000E+00
REACH    2        0    12  0.1473E+01  0.2824E-01  0.2824E-01  0.3845E-06  0.0000E+00  0.1043E+05  0.1043E+05  0.9401E+05  0.8960E+00  0.8950E+00  0.2004E+00  0.2001E+00  0.1068E+02  0.1068E+02  0.0000E+00  0.6205E-02  0.0000E+00  0.0000E+00  0.3868E-02  0.4698E-02  0.1206E-01  0.9528E-02  0.4343E+06  0.4309E+06  0.6803E+03  0.2600E+03  0.0000E+00  0.0000E+00  0.0000E+00  0.0000E+00  0.0000E+00  0.0000E+00  0.0000E+00  0.0000E+00  0.0000E+00  0.0000E+00  0.0000E+00  0.0000E+00  0.0000E+00  0.0000E+00  0.0000E+00  0.0000E+00  0.0000E+00  0.1158E+02  0.2048E+00  0.0000E+00  0.0000E+00
REACH    3        0    12  0.1377E+01  0.3484E-01  0.3484E-01  0.7137E-06  0.0000E+00  0.1735E+05  0.1735E+05  0.1123E+06  0.6891E+01  0.6884E+01  0.1618E+01  0.1615E+01  0.1869E+02  0.1869E+02  0.0000E+00  0.1396E-01  0.0000E+00  0.0000E+00  0.7038E-02  0.1037E-01  0.2132E+00  0.1676E+00  0.9637E+06  0.9550E+06  0.5383E+03  0.5034E+02  0.0000E+00  0.0000E+00  0.0000E+00  0.0000E+00  0.0000E+00  0.0000E+00  0.0000E+00  0.0000E+00  0.0000E+00  0.0000E+00  0.0000E+00  0.0000E+00  0.0000E+00  0.0000E+00  0.0000E+00  0.0000E+00  0.0000E+00  0.2559E+02  0.1625E+01  0.0000E+00  0.0000E+00
REACH    1        0  1983  0.5330E+01  0.2005E+00  0.2005E+00  0.2131E-04  0.0000E+00  0.6427E+06  0.1328E+04  0.1640E+03  0.1705E+05  0.1702E+05  0.3756E+04  0.3743E+04  0.4322E+03  0.4320E+03  0.6830E+01  0.2049E+02  0.0000E+00  0.2460E-01  0.2817E+01  0.7250E+01  0.2565E+03  0.2122E+03  0.2611E+08  0.2568E+08  0.4194E+05  0.8783E+04  0.0000E+00  0.0000E+00  0.0000E+00  0.0000E+00  0.0000E+00  0.0000E+00  0.0000E+00  0.0000E+00  0.0000E+00  0.0000E+00  0.0000E+00  0.0000E+00  0.0000E+00  0.0000E+00  0.0000E+00  0.0000E+00  0.0000E+00  0.1747E+05  0.3751E+04  0.0000E+00  0.0000E+00
REACH    2        0  1983  0.1473E+01  0.3803E-01  0.3803E-01  0.1331E-05  0.0000E+00  0.1610E+06  0.1610E+06  0.6775E+05  0.4723E+04  0.4719E+04  0.1041E+04  0.1040E+04  0.1389E+03  0.1388E+03  0.0000E+00  0.2810E+01  0.0000E+00  0.0000E+00  0.3385E+00  0.8601E+00  0.9970E+02  0.9094E+02  0.6532E+07  0.6492E+07  0.1141E+05  0.3416E+04  0.0000E+00  0.0000E+00  0.0000E+00  0.0000E+00  0.0000E+00  0.0000E+00  0.0000E+00  0.0000E+00  0.0000E+00  0.0000E+00  0.0000E+00  0.0000E+00  0.0000E+00  0.0000E+00  0.0000E+00  0.0000E+00  0.0000E+00  0.4861E+04  0.1041E+04  0.0000E+00  0.0000E+00
REACH    3        0  1983  0.1377E+01  0.2785E-01  0.2784E-01  0.3447E-05  0.0000E+00  0.1593E+06  0.1593E+06  0.7766E+05  0.4215E+04  0.4211E+04  0.9286E+03  0.9271E+03  0.1110E+03  0.1110E+03  0.0000E+00  0.4019E+01  0.0000E+00  0.0000E+00  0.2398E+00  0.6472E+00  0.9519E+02  0.8348E+02  0.7426E+07  0.7359E+07  0.7114E+04  0.1949E+04  0.0000E+00  0.0000E+00  0.0000E+00  0.0000E+00  0.0000E+00  0.0000E+00  0.0000E+00  0.0000E+00  0.0000E+00  0.0000E+00  0.0000E+00  0.0000E+00  0.0000E+00  0.0000E+00  0.0000E+00  0.0000E+00  0.0000E+00  0.4326E+04  0.9277E+03  0.0000E+00  0.0000E+00
REACH    1        0     1  0.5330E+01  0.3004E+00  0.3004E+00  0.1461E-04  0.0000E+00  0.9963E+05  0.1778E+03  0.2130E+03  0.1280E+05  0.1278E+05  0.2809E+04  0.2800E+04  0.5370E+02  0.5359E+02  0.5200E+01  0.1560E+02  0.0000E+00  0.1596E-01  0.1342E+01  0.4017E+01  0.1798E+03  0.1490E+03  0.4003E+07  0.3938E+07  0.5036E+04  0.5736E+03  0.0000E+00  0.0000E+00  0.0000E+00  0.0000E+00  0.0000E+00  0.0000E+00  0.0000E+00  0.0000E+00  0.0000E+00  0.0000E+00  0.0000E+00  0.0000E+00  0.0000E+00  0.0000E+00  0.0000E+00  0.0000E+00  0.0000E+00  0.1285E+05  0.2804E+04  0.0000E+00  0.0000E+00
REACH    2        0     1  0.1473E+01  0.5965E-01  0.5965E-01  0.4688E-06  0.0000E+00  0.3159E+05  0.3159E+05  0.1287E+06  0.3972E+04  0.3969E+04  0.8720E+03  0.8711E+03  0.1157E+02  0.1156E+02  0.0000E+00  0.2245E+01  0.0000E+00  0.0000E+00  0.1880E+00  0.5515E+00  0.8361E+02  0.7532E+02  0.1423E+07  0.1415E+07  0.1129E+04  0.2432E+03  0.0000E+00  0.0000E+00  0.0000E+00  0.0000E+00  0.0000E+00  0.0000E+00  0.0000E+00  0.0000E+00  0.0000E+00  0.0000E+00  0.0000E+00  0.0000E+00  0.0000E+00  0.0000E+00  0.0000E+00  0.0000E+00  0.0000E+00  0.3983E+04  0.8717E+03  0.0000E+00  0.0000E+00
REACH    3        0     1  0.1377E+01  0.3784E-01  0.3784E-01  0.8483E-06  0.0000E+00  0.1713E+05  0.1713E+05  0.9769E+05  0.3216E+04  0.3212E+04  0.7046E+03  0.7034E+03  0.1548E+02  0.1546E+02  0.0000E+00  0.2955E+01  0.0000E+00  0.0000E+00  0.1247E+00  0.3740E+00  0.5828E+02  0.4940E+02  0.7266E+06  0.7198E+06  0.8654E+03  0.1482E+03  0.0000E+00  0.0000E+00  0.0000E+00  0.0000E+00  0.0000E+00  0.0000E+00  0.0000E+00  0.0000E+00  0.0000E+00  0.0000E+00  0.0000E+00  0.0000E+00  0.0000E+00  0.0000E+00  0.0000E+00  0.0000E+00  0.0000E+00  0.3231E+04  0.7038E+03  0.0000E+00  0.0000E+00
REACH    1        0     2  0.5330E+01  0.6969E+00  0.6969E+00  0.1144E-04  0.0000E+00  0.3411E+06  0.5364E+03  0.2969E+03  0.2826E+04  0.2822E+04  0.6276E+03  0.6262E+03  0.5474E+02  0.5473E+02  0.6180E+00  0.1854E+01  0.0000E+00  0.5584E-03  0.1151E+01  0.2160E+01  0.3637E+02  0.3353E+02  0.1510E+08  0.1492E+08  0.9247E+04  0.9354E+03  0.0000E+00  0.0000E+00  0.0000E+00  0.0000E+00  0.0000E+00  0.0000E+00  0.0000E+00  0.0000E+00  0.0000E+00  0.0000E+00  0.0000E+00  0.0000E+00  0.0000E+00  0.0000E+00  0.0000E+00  0.0000E+00  0.0000E+00  0.2878E+04  0.6284E+03  0.0000E+00  0.0000E+00
REACH    2        0     2  0.1473E+01  0.8597E-01  0.8597E-01  0.3583E-06  0.0000E+00  0.4828E+05  0.4828E+05  0.1220E+06  0.3368E+03  0.3366E+03  0.7570E+02  0.7564E+02  0.1222E+02  0.1222E+02  0.0000E+00  0.1607E+00  0.0000E+00  0.0000E+00  0.4364E-01  0.9576E-01  0.5696E+01  0.5345E+01  0.2095E+07  0.2084E+07  0.1434E+04  0.3715E+03  0.0000E+00  0.0000E+00  0.0000E+00  0.0000E+00  0.0000E+00  0.0000E+00  0.0000E+00  0.0000E+00  0.0000E+00  0.0000E+00  0.0000E+00  0.0000E+00  0.0000E+00  0.0000E+00  0.0000E+00  0.0000E+00  0.0000E+00  0.3490E+03  0.7573E+02  0.0000E+00  0.0000E+00
REACH    3        0     2  0.1377E+01  0.6593E-01  0.6592E-01  0.6744E-06  0.0000E+00  0.4305E+05  0.4305E+05  0.1168E+06  0.6083E+03  0.6077E+03  0.1357E+03  0.1355E+03  0.1497E+02  0.1497E+02  0.0000E+00  0.4573E+00  0.0000E+00  0.0000E+00  0.5203E-01  0.1492E+00  0.1038E+02  0.9361E+01  0.1957E+07  0.1942E+07  0.1281E+04  0.4067E+03  0.0000E+00  0.0000E+00  0.0000E+00  0.0000E+00  0.0000E+00  0.0000E+00  0.0000E+00  0.0000E+00  0.0000E+00  0.0000E+00  0.0000E+00  0.0000E+00  0.0000E+00  0.0000E+00  0.0000E+00  0.0000E+00  0.0000E+00  0.6232E+03  0.1357E+03  0.0000E+00  0.0000E+00
REACH    1        0     3  0.5330E+01  0.6642E+00  0.6642E+00  0.2994E-04  0.0000E+00  0.2556E+06  0.5330E+03  0.2940E+03  0.6496E+03  0.6486E+03  0.1437E+03  0.1434E+03  0.4540E+02  0.4540E+02  0.2597E+00  0.7791E+00  0.0000E+00  0.2682E-03  0.5884E+00  0.8897E+00  0.8371E+01  0.7713E+01  0.1048E+08  0.1034E+08  0.9914E+04  0.1584E+03  0.0000E+00  0.0000E+00  0.0000E+00  0.0000E+00  0.0000E+00  0.0000E+00  0.0000E+00  0.0000E+00  0.0000E+00  0.0000E+00  0.0000E+00  0.0000E+00  0.0000E+00  0.0000E+00  0.0000E+00  0.0000E+00  0.0000E+00  0.6948E+03  0.1443E+03  0.0000E+00  0.0000E+00
REACH    2        0     3  0.1473E+01  0.8468E-01  0.8468E-01  0.9605E-06  0.0000E+00  0.4136E+05  0.4136E+05  0.1321E+06  0.5258E+02  0.5255E+02  0.1230E+02  0.1229E+02  0.8978E+01  0.8978E+01  0.0000E+00  0.3098E-01  0.0000E+00  0.0000E+00  0.1645E-01  0.2692E-01  0.3911E+00  0.3664E+00  0.1757E+07  0.1748E+07  0.1618E+04  0.2688E+03  0.0000E+00  0.0000E+00  0.0000E+00  0.0000E+00  0.0000E+00  0.0000E+00  0.0000E+00  0.0000E+00  0.0000E+00  0.0000E+00  0.0000E+00  0.0000E+00  0.0000E+00  0.0000E+00  0.0000E+00  0.0000E+00  0.0000E+00  0.6156E+02  0.1232E+02  0.0000E+00  0.0000E+00
REACH    3        0     3  0.1377E+01  0.7413E-01  0.7413E-01  0.2556E-05  0.0000E+00  0.4426E+05  0.4426E+05  0.1434E+06  0.3072E+03  0.3070E+03  0.6892E+02  0.6882E+02  0.1288E+02  0.1288E+02  0.0000E+00  0.2287E+00  0.0000E+00  0.0000E+00  0.2557E-01  0.7062E-01  0.6360E+01  0.5865E+01  0.1978E+07  0.1962E+07  0.1343E+04  0.1399E+03  0.0000E+00  0.0000E+00  0.0000E+00  0.0000E+00  0.0000E+00  0.0000E+00  0.0000E+00  0.0000E+00  0.0000E+00  0.0000E+00  0.0000E+00  0.0000E+00  0.0000E+00  0.0000E+00  0.0000E+00  0.0000E+00  0.0000E+00  0.3201E+03  0.6890E+02  0.0000E+00  0.0000E+00
REACH    1        0     4  0.5330E+01  0.4268E+00  0.4268E+00  0.2695E-04  0.0000E+00  0.1131E+06  0.2724E+03  0.2445E+03  0.5915E+02  0.5904E+02  0.1308E+02  0.1304E+02  0.2828E+02  0.2828E+02  0.3537E-01  0.1061E+00  0.0000E+00  0.0000E+00  0.8056E-01  0.1186E+00  0.3219E+00  0.2805E+00  0.4172E+07  0.4107E+07  0.7771E+04  0.4291E+03  0.0000E+00  0.0000E+00  0.0000E+00  0.0000E+00  0.0000E+00  0.0000E+00  0.0000E+00  0.0000E+00  0.0000E+00  0.0000E+00  0.0000E+00  0.0000E+00  0.0000E+00  0.0000E+00  0.0000E+00  0.0000E+00  0.0000E+00  0.8742E+02  0.1316E+02  0.0000E+00  0.0000E+00
REACH    2        0     4  0.1473E+01  0.8508E-01  0.8508E-01  0.1455E-05  0.0000E+00  0.4156E+05  0.4156E+05  0.1181E+06  0.2021E+02  0.2019E+02  0.4556E+01  0.4552E+01  0.5731E+01  0.5731E+01  0.0000E+00  0.1585E-01  0.0000E+00  0.0000E+00  0.1304E-01  0.1737E-01  0.1765E+00  0.1643E+00  0.1703E+07  0.1694E+07  0.1731E+04  0.4929E+03  0.0000E+00  0.0000E+00  0.0000E+00  0.0000E+00  0.0000E+00  0.0000E+00  0.0000E+00  0.0000E+00  0.0000E+00  0.0000E+00  0.0000E+00  0.0000E+00  0.0000E+00  0.0000E+00  0.0000E+00  0.0000E+00  0.0000E+00  0.2594E+02  0.4569E+01  0.0000E+00  0.0000E+00
REACH    3        0     4  0.1377E+01  0.6076E-01  0.6076E-01  0.4473E-05  0.0000E+00  0.3568E+05  0.3568E+05  0.1270E+06  0.1532E+02  0.1530E+02  0.3494E+01  0.3489E+01  0.6116E+01  0.6116E+01  0.0000E+00  0.1952E-01  0.0000E+00  0.0000E+00  0.6942E-02  0.1194E-01  0.1558E+00  0.1370E+00  0.1506E+07  0.1493E+07  0.1219E+04  0.3278E+03  0.0000E+00  0.0000E+00  0.0000E+00  0.0000E+00  0.0000E+00  0.0000E+00  0.0000E+00  0.0000E+00  0.0000E+00  0.0000E+00  0.0000E+00  0.0000E+00  0.0000E+00  0.0000E+00  0.0000E+00  0.0000E+00  0.0000E+00  0.2144E+02  0.3501E+01  0.0000E+00  0.0000E+00
REACH    1        0     5  0.5330E+01  0.2947E+00  0.2946E+00  0.4143E-04  0.0000E+00  0.4336E+05  0.1679E+03  0.2071E+03  0.1080E+02  0.1078E+02  0.2336E+01  0.2327E+01  0.1700E+02  0.1700E+02  0.1704E-01  0.5113E-01  0.0000E+00  0.0000E+00  0.2644E-01  0.3833E-01  0.3170E-01  0.2618E-01  0.1236E+07  0.1213E+07  0.6058E+04  0.6525E+03  0.0000E+00  0.0000E+00  0.0000E+00  0.0000E+00  0.0000E+00  0.0000E+00  0.0000E+00  0.0000E+00  0.0000E+00  0.0000E+00  0.0000E+00  0.0000E+00  0.0000E+00  0.0000E+00  0.0000E+00  0.0000E+00  0.0000E+00  0.2782E+02  0.2366E+01  0.0000E+00  0.0000E+00
REACH    2        0     5  0.1473E+01  0.5670E-01  0.5670E-01  0.2827E-05  0.0000E+00  0.2091E+05  0.2091E+05  0.1034E+06  0.3414E+01  0.3411E+01  0.7477E+00  0.7468E+00  0.3010E+01  0.3009E+01  0.0000E+00  0.7692E-02  0.0000E+00  0.0000E+00  0.6613E-02  0.7897E-02  0.2456E-01  0.2226E-01  0.7226E+06  0.7186E+06  0.1343E+04  0.3045E+03  0.0000E+00  0.0000E+00  0.0000E+00  0.0000E+00  0.0000E+00  0.0000E+00  0.0000E+00  0.0000E+00  0.0000E+00  0.0000E+00  0.0000E+00  0.0000E+00  0.0000E+00  0.0000E+00  0.0000E+00  0.0000E+00  0.0000E+00  0.6428E+01  0.7547E+00  0.0000E+00  0.0000E+00
REACH    3        0     5  0.1377E+01  0.3085E-01  0.3084E-01  0.8029E-05  0.0000E+00  0.8743E+04  0.8743E+04  0.8410E+05  0.1572E+01  0.1570E+01  0.3567E+00  0.3559E+00  0.1682E+01  0.1681E+01  0.0000E+00  0.9352E-02  0.0000E+00  0.0000E+00  0.1735E-02  0.3042E-02  0.8498E-02  0.6575E-02  0.2604E+06  0.2573E+06  0.8738E+03  0.1766E+03  0.0000E+00  0.0000E+00  0.0000E+00  0.0000E+00  0.0000E+00  0.0000E+00  0.0000E+00  0.0000E+00  0.0000E+00  0.0000E+00  0.0000E+00  0.0000E+00  0.0000E+00  0.0000E+00  0.0000E+00  0.0000E+00  0.0000E+00  0.3260E+01  0.3589E+00  0.0000E+00  0.0000E+00
REACH    1        0     6  0.5330E+01  0.1484E+00  0.1484E+00  0.2129E-04  0.0000E+00  0.2794E+04  0.5923E+02  0.1529E+03  0.8315E+00  0.8288E+00  0.1881E+00  0.1872E+00  0.7010E+01  0.7009E+01  0.1323E-01  0.3968E-01  0.0000E+00  0.0000E+00  0.1970E-02  0.5037E-02  0.1777E-02  0.1162E-02  0.4376E+05  0.4281E+05  0.3679E+04  0.2083E+04  0.0000E+00  0.0000E+00  0.0000E+00  0.0000E+00  0.0000E+00  0.0000E+00  0.0000E+00  0.0000E+00  0.0000E+00  0.0000E+00  0.0000E+00  0.0000E+00  0.0000E+00  0.0000E+00  0.0000E+00  0.0000E+00  0.0000E+00  0.7878E+01  0.1922E+00  0.0000E+00  0.0000E+00
REACH    2        0     6  0.1473E+01  0.2668E-01  0.2667E-01  0.1861E-05  0.0000E+00  0.1416E+04  0.1416E+04  0.1253E+05  0.3413E+00  0.3410E+00  0.7450E-01  0.7440E-01  0.1321E+01  0.1321E+01  0.0000E+00  0.5463E-02  0.0000E+00  0.0000E+00  0.8313E-03  0.1259E-02  0.1117E-02  0.9498E-03  0.2886E+05  0.2866E+05  0.9225E+03  0.4922E+03  0.0000E+00  0.0000E+00  0.0000E+00  0.0000E+00  0.0000E+00  0.0000E+00  0.0000E+00  0.0000E+00  0.0000E+00  0.0000E+00  0.0000E+00  0.0000E+00  0.0000E+00  0.0000E+00  0.0000E+00  0.0000E+00  0.0000E+00  0.1668E+01  0.7566E-01  0.0000E+00  0.0000E+00
REACH    3        0     6  0.1377E+01  0.1600E-01  0.1600E-01  0.5882E-05  0.0000E+00  0.1259E+04  0.1259E+04  0.2716E+05  0.4896E+00  0.4884E+00  0.1125E+00  0.1121E+00  0.8713E+00  0.8710E+00  0.0000E+00  0.7767E-02  0.0000E+00  0.0000E+00  0.2341E-03  0.6870E-03  0.1664E-02  0.8269E-03  0.1511E+05  0.1486E+05  0.5532E+03  0.1831E+03  0.0000E+00  0.0000E+00  0.0000E+00  0.0000E+00  0.0000E+00  0.0000E+00  0.0000E+00  0.0000E+00  0.0000E+00  0.0000E+00  0.0000E+00  0.0000E+00  0.0000E+00  0.0000E+00  0.0000E+00  0.0000E+00  0.0000E+00  0.1367E+01  0.1128E+00  0.0000E+00  0.0000E+00
REACH    1        0     7  0.5330E+01  0.8418E-01  0.8414E-01  0.3674E-04  0.0000E+00  0.6038E+03  0.2580E+02  0.1121E+03  0.8628E-02  0.8590E-02  0.2481E-02  0.2459E-02  0.3521E+01  0.3520E+01  0.1216E-01  0.3646E-01  0.0000E+00  0.0000E+00  0.2935E-03  0.6909E-03  0.1832E-06  0.0000E+00  0.4164E+04  0.4010E+04  0.2302E+04  0.1503E+04  0.0000E+00  0.0000E+00  0.0000E+00  0.0000E+00  0.0000E+00  0.0000E+00  0.0000E+00  0.0000E+00  0.0000E+00  0.0000E+00  0.0000E+00  0.0000E+00  0.0000E+00  0.0000E+00  0.0000E+00  0.0000E+00  0.0000E+00  0.3565E+01  0.3149E-02  0.0000E+00  0.0000E+00
REACH    2        0     7  0.1473E+01  0.1558E-01  0.1558E-01  0.2301E-05  0.0000E+00  0.4829E+02  0.4829E+02  0.1397E+04  0.1176E-02  0.1169E-02  0.6601E-03  0.6484E-03  0.5143E+00  0.5143E+00  0.0000E+00  0.5215E-02  0.0000E+00  0.0000E+00  0.1435E-04  0.2061E-04  0.7737E-08  0.0000E+00  0.2022E+03  0.1988E+03  0.5962E+03  0.4575E+03  0.0000E+00  0.0000E+00  0.0000E+00  0.0000E+00  0.0000E+00  0.0000E+00  0.0000E+00  0.0000E+00  0.0000E+00  0.0000E+00  0.0000E+00  0.0000E+00  0.0000E+00  0.0000E+00  0.0000E+00  0.0000E+00  0.0000E+00  0.5206E+00  0.6690E-03  0.0000E+00  0.0000E+00
REACH    3        0     7  0.1377E+01  0.1068E-01  0.1067E-01  0.6438E-05  0.0000E+00  0.5549E+03  0.5549E+03  0.1961E+05  0.7469E-02  0.7442E-02  0.1812E-02  0.1802E-02  0.7608E+00  0.7603E+00  0.0000E+00  0.6944E-02  0.0000E+00  0.0000E+00  0.8855E-04  0.2655E-03  0.2234E-05  0.1832E-06  0.4065E+04  0.3965E+04  0.3857E+03  0.1199E+03  0.0000E+00  0.0000E+00  0.0000E+00  0.0000E+00  0.0000E+00  0.0000E+00  0.0000E+00  0.0000E+00  0.0000E+00  0.0000E+00  0.0000E+00  0.0000E+00  0.0000E+00  0.0000E+00  0.0000E+00  0.0000E+00  0.0000E+00  0.7747E+00  0.2068E-02  0.0000E+00  0.0000E+00
REACH    1        0     8  0.5330E+01  0.5947E-01  0.5944E-01  0.3139E-04  0.0000E+00  0.2233E+04  0.1696E+02  0.1065E+03  0.4577E+00  0.4555E+00  0.1070E+00  0.1062E+00  0.7242E+01  0.7238E+01  0.1281E-01  0.3841E-01  0.0000E+00  0.0000E+00  0.9624E-03  0.2886E-02  0.2625E-02  0.1971E-03  0.2569E+05  0.2474E+05  0.1468E+04  0.4638E+03  0.0000E+00  0.0000E+00  0.0000E+00  0.0000E+00  0.0000E+00  0.0000E+00  0.0000E+00  0.0000E+00  0.0000E+00  0.0000E+00  0.0000E+00  0.0000E+00  0.0000E+00  0.0000E+00  0.0000E+00  0.0000E+00  0.0000E+00  0.7732E+01  0.1091E+00  0.0000E+00  0.0000E+00
[...]
REACH    1        0     3  0.5330E+01  0.1848E+00  0.1848E+00  0.2897E-04  0.0000E+00  0.2641E+05  0.8600E+02  0.1680E+03  0.4941E+03  0.4928E+03  0.1113E+03  0.1108E+03  0.2235E+02  0.2234E+02  0.2384E+00  0.7150E+00  0.0000E+00  0.8600E-03  0.6284E-01  0.1884E+00  0.2827E+01  0.2184E+01  0.7991E+06  0.7830E+06  0.3665E+04  0.8652E+03  0.0000E+00  0.0000E+00  0.0000E+00  0.0000E+00  0.0000E+00  0.0000E+00  0.0000E+00  0.0000E+00  0.0000E+00  0.0000E+00  0.0000E+00  0.0000E+00  0.0000E+00  0.0000E+00  0.0000E+00  0.0000E+00  0.0000E+00  0.5159E+03  0.1110E+03  0.0000E+00  0.0000E+00
REACH    2        0     3  0.1473E+01  0.3198E-01  0.3198E-01  0.1324E-05  0.0000E+00  0.6093E+04  0.6093E+04  0.5846E+05  0.1304E+03  0.1303E+03  0.2970E+02  0.2965E+02  0.3839E+01  0.3838E+01  0.0000E+00  0.1082E+00  0.0000E+00  0.0000E+00  0.7013E-02  0.2101E-01  0.8038E+00  0.6665E+00  0.1675E+06  0.1661E+06  0.9424E+03  0.1912E+03  0.0000E+00  0.0000E+00  0.0000E+00  0.0000E+00  0.0000E+00  0.0000E+00  0.0000E+00  0.0000E+00  0.0000E+00  0.0000E+00  0.0000E+00  0.0000E+00  0.0000E+00  0.0000E+00  0.0000E+00  0.0000E+00  0.0000E+00  0.1342E+03  0.2968E+02  0.0000E+00  0.0000E+00
REACH    3        0     3  0.1377E+01  0.2847E-01  0.2847E-01  0.4232E-05  0.0000E+00  0.8888E+04  0.8888E+04  0.6574E+05  0.1180E+03  0.1179E+03  0.2693E+02  0.2687E+02  0.3661E+01  0.3660E+01  0.0000E+00  0.1302E+00  0.0000E+00  0.0000E+00  0.7803E-02  0.2323E-01  0.2153E+01  0.1814E+01  0.3475E+06  0.3438E+06  0.7733E+03  0.2020E+03  0.0000E+00  0.0000E+00  0.0000E+00  0.0000E+00  0.0000E+00  0.0000E+00  0.0000E+00  0.0000E+00  0.0000E+00  0.0000E+00  0.0000E+00  0.0000E+00  0.0000E+00  0.0000E+00  0.0000E+00  0.0000E+00  0.0000E+00  0.1217E+03  0.2690E+02  0.0000E+00  0.0000E+00
REACH    1        0     4  0.5330E+01  0.1532E+00  0.1532E+00  0.3565E-04  0.0000E+00  0.1966E+05  0.6574E+02  0.1599E+03  0.2588E+03  0.2581E+03  0.5788E+02  0.5764E+02  0.1674E+02  0.1673E+02  0.1015E+00  0.3045E+00  0.0000E+00  0.3178E-03  0.2794E-01  0.8353E-01  0.1740E+01  0.1340E+01  0.5666E+06  0.5542E+06  0.2998E+04  0.9349E+03  0.0000E+00  0.0000E+00  0.0000E+00  0.0000E+00  0.0000E+00  0.0000E+00  0.0000E+00  0.0000E+00  0.0000E+00  0.0000E+00  0.0000E+00  0.0000E+00  0.0000E+00  0.0000E+00  0.0000E+00  0.0000E+00  0.0000E+00  0.2751E+03  0.5772E+02  0.0000E+00  0.0000E+00
REACH    2        0     4  0.1473E+01  0.2872E-01  0.2872E-01  0.1951E-05  0.0000E+00  0.5920E+04  0.5920E+04  0.5325E+05  0.8821E+02  0.8813E+02  0.2004E+02  0.2001E+02  0.3042E+01  0.3042E+01  0.0000E+00  0.7093E-01  0.0000E+00  0.0000E+00  0.4307E-02  0.1276E-01  0.1392E+01  0.1197E+01  0.1779E+06  0.1765E+06  0.8458E+03  0.2372E+03  0.0000E+00  0.0000E+00  0.0000E+00  0.0000E+00  0.0000E+00  0.0000E+00  0.0000E+00  0.0000E+00  0.0000E+00  0.0000E+00  0.0000E+00  0.0000E+00  0.0000E+00  0.0000E+00  0.0000E+00  0.0000E+00  0.0000E+00  0.9124E+02  0.2002E+02  0.0000E+00  0.0000E+00
REACH    3        0     4  0.1377E+01  0.2124E-01  0.2124E-01  0.4829E-05  0.0000E+00  0.4976E+04  0.4976E+04  0.7104E+05  0.2151E+02  0.2148E+02  0.4950E+01  0.4940E+01  0.2411E+01  0.2410E+01  0.0000E+00  0.3059E-01  0.0000E+00  0.0000E+00  0.1776E-02  0.5182E-02  0.2843E+00  0.2223E+00  0.1592E+06  0.1573E+06  0.6028E+03  0.1210E+03  0.0000E+00  0.0000E+00  0.0000E+00  0.0000E+00  0.0000E+00  0.0000E+00  0.0000E+00  0.0000E+00  0.0000E+00  0.0000E+00  0.0000E+00  0.0000E+00  0.0000E+00  0.0000E+00  0.0000E+00  0.0000E+00  0.0000E+00  0.2392E+02  0.4945E+01  0.0000E+00  0.0000E+00
REACH    1        0     5  0.5330E+01  0.1034E+00  0.1034E+00  0.4254E-04  0.0000E+00  0.4708E+04  0.3712E+02  0.1329E+03  0.8767E+01  0.8733E+01  0.2043E+01  0.2031E+01  0.1037E+02  0.1036E+02  0.2334E-01  0.6999E-01  0.0000E+00  0.1150E-04  0.3114E-02  0.9338E-02  0.1399E-01  0.6627E-02  0.7591E+05  0.7368E+05  0.2288E+04  0.4703E+03  0.0000E+00  0.0000E+00  0.0000E+00  0.0000E+00  0.0000E+00  0.0000E+00  0.0000E+00  0.0000E+00  0.0000E+00  0.0000E+00  0.0000E+00  0.0000E+00  0.0000E+00  0.0000E+00  0.0000E+00  0.0000E+00  0.0000E+00  0.1917E+02  0.2041E+01  0.0000E+00  0.0000E+00
REACH    2        0     5  0.1473E+01  0.1950E-01  0.1949E-01  0.2928E-05  0.0000E+00  0.1321E+04  0.1321E+04  0.2223E+05  0.7602E+01  0.7591E+01  0.1752E+01  0.1748E+01  0.1677E+01  0.1677E+01  0.0000E+00  0.1388E-01  0.0000E+00  0.0000E+00  0.5923E-03  0.1773E-02  0.1757E-01  0.1222E-01  0.1810E+05  0.1791E+05  0.6874E+03  0.2706E+03  0.0000E+00  0.0000E+00  0.0000E+00  0.0000E+00  0.0000E+00  0.0000E+00  0.0000E+00  0.0000E+00  0.0000E+00  0.0000E+00  0.0000E+00  0.0000E+00  0.0000E+00  0.0000E+00  0.0000E+00  0.0000E+00  0.0000E+00  0.9282E+01  0.1750E+01  0.0000E+00  0.0000E+00
REACH    3        0     5  0.1377E+01  0.1587E-01  0.1586E-01  0.8431E-05  0.0000E+00  0.2933E+04  0.2933E+04  0.6199E+05  0.1034E+01  0.1031E+01  0.2589E+00  0.2579E+00  0.1325E+01  0.1324E+01  0.0000E+00  0.9459E-02  0.0000E+00  0.0000E+00  0.4229E-03  0.1268E-02  0.3287E-02  0.1711E-02  0.5620E+05  0.5515E+05  0.5096E+03  0.7446E+02  0.0000E+00  0.0000E+00  0.0000E+00  0.0000E+00  0.0000E+00  0.0000E+00  0.0000E+00  0.0000E+00  0.0000E+00  0.0000E+00  0.0000E+00  0.0000E+00  0.0000E+00  0.0000E+00  0.0000E+00  0.0000E+00  0.0000E+00  0.2365E+01  0.2592E+00  0.0000E+00  0.0000E+00
REACH    1        0     6  0.5330E+01  0.7120E-01  0.7117E-01  0.2794E-04  0.0000E+00  0.1492E+04  0.1825E+02  0.9924E+02  0.1530E+01  0.1521E+01  0.3614E+00  0.3583E+00  0.6949E+01  0.6946E+01  0.1567E-01  0.4700E-01  0.0000E+00  0.1617E-04  0.7541E-03  0.2261E-02  0.5149E-03  0.9676E-04  0.1764E+05  0.1693E+05  0.1703E+04  0.7310E+03  0.0000E+00  0.0000E+00  0.0000E+00  0.0000E+00  0.0000E+00  0.0000E+00  0.0000E+00  0.0000E+00  0.0000E+00  0.0000E+00  0.0000E+00  0.0000E+00  0.0000E+00  0.0000E+00  0.0000E+00  0.0000E+00  0.0000E+00  0.8514E+01  0.3606E+00  0.0000E+00  0.0000E+00
REACH    2        0     6  0.1473E+01  0.1311E-01  0.1310E-01  0.2124E-05  0.0000E+00  0.2435E+03  0.2435E+03  0.6411E+04  0.8479E+00  0.8460E+00  0.1970E+00  0.1963E+00  0.9079E+00  0.9078E+00  0.0000E+00  0.6676E-02  0.0000E+00  0.0000E+00  0.7444E-04  0.1882E-03  0.3481E-03  0.1897E-03  0.1594E+04  0.1568E+04  0.4777E+03  0.2902E+03  0.0000E+00  0.0000E+00  0.0000E+00  0.0000E+00  0.0000E+00  0.0000E+00  0.0000E+00  0.0000E+00  0.0000E+00  0.0000E+00  0.0000E+00  0.0000E+00  0.0000E+00  0.0000E+00  0.0000E+00  0.0000E+00  0.0000E+00  0.1760E+01  0.1965E+00  0.0000E+00  0.0000E+00
REACH    3        0     6  0.1377E+01  0.1131E-01  0.1130E-01  0.6433E-05  0.0000E+00  0.1247E+04  0.1247E+04  0.3855E+05  0.6865E+00  0.6836E+00  0.1659E+00  0.1649E+00  0.9772E+00  0.9766E+00  0.0000E+00  0.8998E-02  0.0000E+00  0.0000E+00  0.1861E-03  0.5580E-03  0.1885E-02  0.3253E-03  0.1648E+05  0.1608E+05  0.3761E+03  0.9320E+02  0.0000E+00  0.0000E+00  0.0000E+00  0.0000E+00  0.0000E+00  0.0000E+00  0.0000E+00  0.0000E+00  0.0000E+00  0.0000E+00  0.0000E+00  0.0000E+00  0.0000E+00  0.0000E+00  0.0000E+00  0.0000E+00  0.0000E+00  0.1669E+01  0.1655E+00  0.0000E+00  0.0000E+00
REACH    1        0     7  0.5330E+01  0.5427E-01  0.5424E-01  0.3245E-04  0.0000E+00  0.2104E+04  0.1540E+02  0.1052E+03  0.1398E+01  0.1390E+01  0.3412E+00  0.3386E+00  0.7420E+01  0.7416E+01  0.1457E-01  0.4368E-01  0.0000E+00  0.1577E-04  0.9085E-03  0.2704E-02  0.1136E-02  0.9602E-04  0.2788E+05  0.2688E+05  0.1341E+04  0.5580E+03  0.0000E+00  0.0000E+00  0.0000E+00  0.0000E+00  0.0000E+00  0.0000E+00  0.0000E+00  0.0000E+00  0.0000E+00  0.0000E+00  0.0000E+00  0.0000E+00  0.0000E+00  0.0000E+00  0.0000E+00  0.0000E+00  0.0000E+00  0.8850E+01  0.3413E+00  0.0000E+00  0.0000E+00
REACH    2        0     7  0.1473E+01  0.9652E-02  0.9650E-02  0.2396E-05  0.0000E+00  0.3590E+03  0.3590E+03  0.1159E+05  0.1239E+01  0.1236E+01  0.2876E+00  0.2867E+00  0.1053E+01  0.1053E+01  0.0000E+00  0.7103E-02  0.0000E+00  0.0000E+00  0.1160E-03  0.3381E-03  0.2262E-02  0.1062E-02  0.4508E+04  0.4436E+04  0.3566E+03  0.2131E+03  0.0000E+00  0.0000E+00  0.0000E+00  0.0000E+00  0.0000E+00  0.0000E+00  0.0000E+00  0.0000E+00  0.0000E+00  0.0000E+00  0.0000E+00  0.0000E+00  0.0000E+00  0.0000E+00  0.0000E+00  0.0000E+00  0.0000E+00  0.2296E+01  0.2871E+00  0.0000E+00  0.0000E+00
REACH    3        0     7  0.1377E+01  0.9381E-02  0.9374E-02  0.7125E-05  0.0000E+00  0.1646E+04  0.1646E+04  0.6052E+05  0.1424E+00  0.1419E+00  0.4939E-01  0.4913E-01  0.1062E+01  0.1062E+01  0.0000E+00  0.7465E-02  0.0000E+00  0.0000E+00  0.1851E-03  0.5550E-03  0.3456E-03  0.7252E-04  0.2376E+05  0.2316E+05  0.3138E+03  0.9606E+02  0.0000E+00  0.0000E+00  0.0000E+00  0.0000E+00  0.0000E+00  0.0000E+00  0.0000E+00  0.0000E+00  0.0000E+00  0.0000E+00  0.0000E+00  0.0000E+00  0.0000E+00  0.0000E+00  0.0000E+00  0.0000E+00  0.0000E+00  0.1211E+01  0.4969E-01  0.0000E+00  0.0000E+00
REACH    1        0     8  0.5330E+01  0.4989E-01  0.4987E-01  0.2395E-04  0.0000E+00  0.2298E+04  0.1291E+02  0.9478E+02  0.1091E+02  0.1086E+02  0.2488E+01  0.2470E+01  0.1036E+02  0.1035E+02  0.3012E-01  0.9031E-01  0.0000E+00  0.1750E-03  0.1460E-02  0.4343E-02  0.1284E+00  0.2890E-01  0.4734E+05  0.4549E+05  0.1270E+04  0.8431E+03  0.0000E+00  0.0000E+00  0.0000E+00  0.0000E+00  0.0000E+00  0.0000E+00  0.0000E+00  0.0000E+00  0.0000E+00  0.0000E+00  0.0000E+00  0.0000E+00  0.0000E+00  0.0000E+00  0.0000E+00  0.0000E+00  0.0000E+00  0.2130E+02  0.2474E+01  0.0000E+00  0.0000E+00
REACH    2        0     8  0.1473E+01  0.9434E-02  0.9432E-02  0.1921E-05  0.0000E+00  0.1179E+04  0.1179E+04  0.3667E+05  0.9644E+01  0.9625E+01  0.2195E+01  0.2189E+01  0.1607E+01  0.1607E+01  0.0000E+00  0.2109E-01  0.0000E+00  0.0000E+00  0.4049E-03  0.1197E-02  0.2476E+00  0.1270E+00  0.2806E+05  0.2759E+05  0.3270E+03  0.1511E+03  0.0000E+00  0.0000E+00  0.0000E+00  0.0000E+00  0.0000E+00  0.0000E+00  0.0000E+00  0.0000E+00  0.0000E+00  0.0000E+00  0.0000E+00  0.0000E+00  0.0000E+00  0.0000E+00  0.0000E+00  0.0000E+00  0.0000E+00  0.1125E+02  0.2190E+01  0.0000E+00  0.0000E+00
REACH    3        0     8  0.1377E+01  0.6169E-02  0.6164E-02  0.5685E-05  0.0000E+00  0.4329E+03  0.4329E+03  0.1604E+05  0.1002E+01  0.9997E+00  0.2296E+00  0.2289E+00  0.5140E+00  0.5135E+00  0.0000E+00  0.9025E-02  0.0000E+00  0.0000E+00  0.6938E-04  0.1998E-03  0.3164E-01  0.1355E-03  0.9623E+04  0.9452E+04  0.2262E+03  0.1352E+03  0.0000E+00  0.0000E+00  0.0000E+00  0.0000E+00  0.0000E+00  0.0000E+00  0.0000E+00  0.0000E+00  0.0000E+00  0.0000E+00  0.0000E+00  0.0000E+00  0.0000E+00  0.0000E+00  0.0000E+00  0.0000E+00  0.0000E+00  0.1522E+01  0.2291E+00  0.0000E+00  0.0000E+00
REACH    1        0     9  0.5330E+01  0.5309E-01  0.5307E-01  0.1456E-04  0.0000E+00  0.1091E+04  0.1448E+02  0.1043E+03  0.6703E+01  0.6675E+01  0.1525E+01  0.1515E+01  0.1204E+02  0.1204E+02  0.2412E-01  0.7162E-01  0.0000E+00  0.9101E-04  0.1308E-02  0.3922E-02  0.6274E-01  0.5034E-02  0.2322E+05  0.2246E+05  0.1249E+04  0.5512E+03  0.0000E+00  0.0000E+00  0.0000E+00  0.0000E+00  0.0000E+00  0.0000E+00  0.0000E+00  0.0000E+00  0.0000E+00  0.0000E+00  0.0000E+00  0.0000E+00  0.0000E+00  0.0000E+00  0.0000E+00  0.0000E+00  0.0000E+00  0.1879E+02  0.1519E+01  0.0000E+00  0.0000E+00
REACH    2        0     9  0.1473E+01  0.9555E-02  0.9553E-02  0.1461E-05  0.0000E+00  0.5808E+03  0.5808E+03  0.1992E+05  0.5056E+01  0.5046E+01  0.1149E+01  0.1145E+01  0.1647E+01  0.1647E+01  0.0000E+00  0.1419E-01  0.0000E+00  0.0000E+00  0.3048E-03  0.9142E-03  0.1308E+00  0.5811E-01  0.1240E+05  0.1218E+05  0.3306E+03  0.1296E+03  0.0000E+00  0.0000E+00  0.0000E+00  0.0000E+00  0.0000E+00  0.0000E+00  0.0000E+00  0.0000E+00  0.0000E+00  0.0000E+00  0.0000E+00  0.0000E+00  0.0000E+00  0.0000E+00  0.0000E+00  0.0000E+00  0.0000E+00  0.6707E+01  0.1146E+01  0.0000E+00  0.0000E+00
REACH    3        0     9  0.1377E+01  0.5619E-02  0.5615E-02  0.4368E-05  0.0000E+00  0.3831E+03  0.3831E+03  0.2119E+05  0.1628E+01  0.1624E+01  0.3719E+00  0.3706E+00  0.7983E+00  0.7976E+00  0.0000E+00  0.9935E-02  0.0000E+00  0.0000E+00  0.1203E-03  0.3608E-03  0.5693E-01  0.4621E-02  0.1046E+05  0.1027E+05  0.1943E+03  0.6604E+02  0.0000E+00  0.0000E+00  0.0000E+00  0.0000E+00  0.0000E+00  0.0000E+00  0.0000E+00  0.0000E+00  0.0000E+00  0.0000E+00  0.0000E+00  0.0000E+00  0.0000E+00  0.0000E+00  0.0000E+00  0.0000E+00  0.0000E+00  0.2432E+01  0.3710E+00  0.0000E+00  0.0000E+00
REACH    1        0    10  0.5330E+01  0.6753E-01  0.6752E-01  0.1506E-04  0.0000E+00  0.7135E+04  0.2012E+02  0.1085E+03  0.7036E+02  0.7007E+02  0.1594E+02  0.1584E+02  0.1516E+02  0.1515E+02  0.1136E+00  0.3358E+00  0.0000E+00  0.7194E-03  0.1260E-01  0.3777E-01  0.1433E+01  0.5261E+00  0.3141E+06  0.3035E+06  0.1458E+04  0.3716E+03  0.0000E+00  0.0000E+00  0.0000E+00  0.0000E+00  0.0000E+00  0.0000E+00  0.0000E+00  0.0000E+00  0.0000E+00  0.0000E+00  0.0000E+00  0.0000E+00  0.0000E+00  0.0000E+00  0.0000E+00  0.0000E+00  0.0000E+00  0.8556E+02  0.1588E+02  0.0000E+00  0.0000E+00
REACH    2        0    10  0.1473E+01  0.1174E-01  0.1174E-01  0.9065E-06  0.0000E+00  0.2260E+04  0.2260E+04  0.4343E+05  0.3030E+02  0.3026E+02  0.6857E+01  0.6841E+01  0.1859E+01  0.1859E+01  0.0000E+00  0.4435E-01  0.0000E+00  0.0000E+00  0.1408E-02  0.4196E-02  0.1042E+01  0.6298E+00  0.9385E+05  0.9268E+05  0.3524E+03  0.1375E+03  0.0000E+00  0.0000E+00  0.0000E+00  0.0000E+00  0.0000E+00  0.0000E+00  0.0000E+00  0.0000E+00  0.0000E+00  0.0000E+00  0.0000E+00  0.0000E+00  0.0000E+00  0.0000E+00  0.0000E+00  0.0000E+00  0.0000E+00  0.3217E+02  0.6845E+01  0.0000E+00  0.0000E+00
REACH    3        0    10  0.1377E+01  0.1029E-01  0.1029E-01  0.2275E-05  0.0000E+00  0.3465E+04  0.3465E+04  0.7790E+05  0.3882E+02  0.3876E+02  0.8812E+01  0.8787E+01  0.1078E+01  0.1077E+01  0.0000E+00  0.6921E-01  0.0000E+00  0.0000E+00  0.2872E-02  0.8165E-02  0.1524E+01  0.7960E+00  0.2032E+06  0.1998E+06  0.2090E+03  0.4767E+02  0.0000E+00  0.0000E+00  0.0000E+00  0.0000E+00  0.0000E+00  0.0000E+00  0.0000E+00  0.0000E+00  0.0000E+00  0.0000E+00  0.0000E+00  0.0000E+00  0.0000E+00  0.0000E+00  0.0000E+00  0.0000E+00  0.0000E+00  0.3990E+02  0.8795E+01  0.0000E+00  0.0000E+00
REACH    1        0    11  0.5330E+01  0.1150E+00  0.1150E+00  0.2476E-04  0.0000E+00  0.2069E+05  0.2913E+02  0.1309E+03  0.1446E+03  0.1442E+03  0.3249E+02  0.3233E+02  0.1592E+02  0.1592E+02  0.1060E+00  0.3180E+00  0.0000E+00  0.5529E-03  0.3005E-01  0.8850E-01  0.2623E+01  0.1457E+01  0.9816E+06  0.9560E+06  0.1341E+04  0.2628E+03  0.0000E+00  0.0000E+00  0.0000E+00  0.0000E+00  0.0000E+00  0.0000E+00  0.0000E+00  0.0000E+00  0.0000E+00  0.0000E+00  0.0000E+00  0.0000E+00  0.0000E+00  0.0000E+00  0.0000E+00  0.0000E+00  0.0000E+00  0.1604E+03  0.3242E+02  0.0000E+00  0.0000E+00
REACH    2        0    11  0.1473E+01  0.2518E-01  0.2518E-01  0.8167E-06  0.0000E+00  0.6468E+04  0.6468E+04  0.1130E+06  0.3496E+02  0.3493E+02  0.7953E+01  0.7941E+01  0.2655E+01  0.2655E+01  0.0000E+00  0.3290E-01  0.0000E+00  0.0000E+00  0.2819E-02  0.8162E-02  0.1066E+01  0.8578E+00  0.2717E+06  0.2693E+06  0.3799E+03  0.8748E+02  0.0000E+00  0.0000E+00  0.0000E+00  0.0000E+00  0.0000E+00  0.0000E+00  0.0000E+00  0.0000E+00  0.0000E+00  0.0000E+00  0.0000E+00  0.0000E+00  0.0000E+00  0.0000E+00  0.0000E+00  0.0000E+00  0.0000E+00  0.3761E+02  0.7949E+01  0.0000E+00  0.0000E+00
REACH    3        0    11  0.1377E+01  0.2274E-01  0.2274E-01  0.1738E-05  0.0000E+00  0.8310E+04  0.8310E+04  0.1005E+06  0.5895E+02  0.5888E+02  0.1338E+02  0.1335E+02  0.1606E+01  0.1606E+01  0.0000E+00  0.7312E-01  0.0000E+00  0.0000E+00  0.6075E-02  0.1744E-01  0.2319E+01  0.1679E+01  0.5413E+06  0.5354E+06  0.2342E+03  0.7769E+02  0.0000E+00  0.0000E+00  0.0000E+00  0.0000E+00  0.0000E+00  0.0000E+00  0.0000E+00  0.0000E+00  0.0000E+00  0.0000E+00  0.0000E+00  0.0000E+00  0.0000E+00  0.0000E+00  0.0000E+00  0.0000E+00  0.0000E+00  0.6056E+02  0.1337E+02  0.0000E+00  0.0000E+00
REACH    1        0  1990  0.5330E+01  0.1138E+00  0.1138E+00  0.2556E-04  0.0000E+00  0.1743E+06  0.4896E+03  0.1323E+03  0.1322E+05  0.1318E+05  0.2907E+04  0.2896E+04  0.1812E+03  0.1811E+03  0.7497E+01  0.2247E+02  0.0000E+00  0.3033E-01  0.1372E+01  0.4113E+01  0.1465E+03  0.1086E+03  0.6056E+07  0.5918E+07  0.2422E+05  0.6549E+04  0.0000E+00  0.0000E+00  0.0000E+00  0.0000E+00  0.0000E+00  0.0000E+00  0.0000E+00  0.0000E+00  0.0000E+00  0.0000E+00  0.0000E+00  0.0000E+00  0.0000E+00  0.0000E+00  0.0000E+00  0.0000E+00  0.0000E+00  0.1339E+05  0.2900E+04  0.0000E+00  0.0000E+00
REACH    2        0  1990  0.1473E+01  0.2087E-01  0.2087E-01  0.1590E-05  0.0000E+00  0.4860E+05  0.4860E+05  0.4785E+05  0.4396E+04  0.4392E+04  0.9665E+03  0.9652E+03  0.2952E+02  0.2951E+02  0.0000E+00  0.3293E+01  0.0000E+00  0.0000E+00  0.1765E+00  0.5289E+00  0.5733E+02  0.4887E+02  0.1640E+07  0.1627E+07  0.6497E+04  0.2076E+04  0.0000E+00  0.0000E+00  0.0000E+00  0.0000E+00  0.0000E+00  0.0000E+00  0.0000E+00  0.0000E+00  0.0000E+00  0.0000E+00  0.0000E+00  0.0000E+00  0.0000E+00  0.0000E+00  0.0000E+00  0.0000E+00  0.0000E+00  0.4425E+04  0.9657E+03  0.0000E+00  0.0000E+00
REACH    3        0  1990  0.1377E+01  0.1788E-01  0.1788E-01  0.4412E-05  0.0000E+00  0.6063E+05  0.6063E+05  0.6230E+05  0.4021E+04  0.4016E+04  0.8842E+03  0.8826E+03  0.2637E+02  0.2634E+02  0.0000E+00  0.4204E+01  0.0000E+00  0.0000E+00  0.1886E+00  0.5638E+00  0.8336E+02  0.6745E+02  0.2683E+07  0.2653E+07  0.4945E+04  0.1202E+04  0.0000E+00  0.0000E+00  0.0000E+00  0.0000E+00  0.0000E+00  0.0000E+00  0.0000E+00  0.0000E+00  0.0000E+00  0.0000E+00  0.0000E+00  0.0000E+00  0.0000E+00  0.0000E+00  0.0000E+00  0.0000E+00  0.0000E+00  0.4047E+04  0.8831E+03  0.0000E+00  0.0000E+00
REACH    1        0   9.7  0.5330E+01  0.1813E+00  0.1813E+00  0.2652E-04  0.0000E+00  0.5530E+06  0.1180E+04  0.1540E+03  0.2444E+05  0.2438E+05  0.5372E+04  0.5352E+04  0.3704E+03  0.3696E+03  0.1728E+02  0.4561E+02  0.0000E+00  0.1002E+00  0.2982E+01  0.8245E+01  0.3864E+03  0.2910E+03  0.2220E+08  0.2183E+08  0.3923E+05  0.8538E+04  0.0000E+00  0.0000E+00  0.0000E+00  0.0000E+00  0.0000E+00  0.0000E+00  0.0000E+00  0.0000E+00  0.0000E+00  0.0000E+00  0.0000E+00  0.0000E+00  0.0000E+00  0.0000E+00  0.0000E+00  0.0000E+00  0.0000E+00  0.2479E+05  0.5360E+04  0.0000E+00  0.0000E+00
REACH    2        0   9.7  0.1473E+01  0.2976E-01  0.2975E-01  0.1422E-05  0.0000E+00  0.1262E+06  0.1262E+06  0.6400E+05  0.6896E+04  0.6887E+04  0.1517E+04  0.1514E+04  0.7129E+02  0.7108E+02  0.0000E+00  0.8774E+01  0.0000E+00  0.0000E+00  0.3269E+00  0.9125E+00  0.1842E+03  0.1172E+03  0.5110E+07  0.5077E+07  0.8761E+04  0.2726E+04  0.0000E+00  0.0000E+00  0.0000E+00  0.0000E+00  0.0000E+00  0.0000E+00  0.0000E+00  0.0000E+00  0.0000E+00  0.0000E+00  0.0000E+00  0.0000E+00  0.0000E+00  0.0000E+00  0.0000E+00  0.0000E+00  0.0000E+00  0.6967E+04  0.1515E+04  0.0000E+00  0.0000E+00
REACH    3        0   9.7  0.1377E+01  0.2463E-01  0.2463E-01  0.3823E-05  0.0000E+00  0.1337E+06  0.1337E+06  0.7421E+05  0.6563E+04  0.6553E+04  0.1445E+04  0.1441E+04  0.7051E+02  0.7028E+02  0.0000E+00  0.8508E+01  0.0000E+00  0.0000E+00  0.3351E+00  0.9490E+00  0.1976E+03  0.1403E+03  0.6299E+07  0.6238E+07  0.6402E+04  0.1719E+04  0.0000E+00  0.0000E+00  0.0000E+00  0.0000E+00  0.0000E+00  0.0000E+00  0.0000E+00  0.0000E+00  0.0000E+00  0.0000E+00  0.0000E+00  0.0000E+00  0.0000E+00  0.0000E+00  0.0000E+00  0.0000E+00  0.0000E+00  0.6632E+04  0.1442E+04  0.0000E+00  0.0000E+00
