1
    SWAT May 26   VER 2020/Rev 681                                                                       0/ 0/   0      0: 0: 0

    General Input/Output section (file.cio):                                        
    5/19/2025 12:00:00 AM ARCGIS-SWAT interface AV                                  
                                                                                    
         Number of years in run:   36
         Area of watershed:        5.790 km2
1
    SWAT May 26   VER 2020/Rev 681                                                  

    General Input/Output section (file.cio):                                        
    5/19/2025 12:00:00 AM ARCGIS-SWAT interface AV                                  
                                                                                    
Annual Summary for Watershed in year    1 of simulation

UNIT                                    PERCO    TILE                           WATER     SED     NO3     NO3     NO3     NO3        N       P       P
TIME     PREC    SURQ    LATQ     GWQ    LATE       Q     SW       ET     PET   YIELD   YIELD    SURQ    LATQ    PERC    CROP  ORGANIC SOLUBLE ORGANIC TILENO3
         (mm)    (mm)    (mm)    (mm)    (mm)    (mm)    (mm)    (mm)    (mm)    (mm)   (t/ha)  ------------------(kg nutrient/ha)-------------------- (kg/ha)
    1  246.90   51.67   58.69    5.34   62.90    0.00  119.76   13.36   13.79  115.35  161.57    0.02    1.03    8.52    0.00   155.10    0.01   19.00    0.00
    2  320.60   97.78   84.98   36.34  122.25    0.00  119.33   16.93   16.93  219.97  341.92    0.00    0.74   10.62    0.00    30.26    0.01    3.71    0.00
    3  272.40   78.42   70.14   80.22   93.88    0.00  119.20   33.43   33.71  230.65  237.72    0.00    0.28    4.44    0.00     1.18    0.00    0.14    0.00
    4   53.10    8.30   13.70   76.09   15.41    0.00  105.14   31.47   49.57  100.43   25.23    0.00    0.04    0.55    0.00     0.05    0.00    0.01    0.00
    5   11.30    0.00    0.41   46.46    0.00    0.00   94.91   21.07   59.41   49.20    0.00    0.00    0.00    0.00    0.00     0.00    0.00    0.00    0.00
    6    8.00    0.00    0.34   20.66    0.00    0.00   86.49   16.13   63.92   22.87    0.01    0.00    0.00    0.00    0.00     0.00    0.00    0.00    0.00
    7    5.20    0.00    0.00    6.50    0.00    0.00   78.22   13.47   59.26    8.00    0.00    0.00    0.00    0.00    0.00     0.00    0.00    0.00    0.00
    8   17.00    0.07    1.05    0.46    0.00    0.00   76.06   18.00   55.59    2.71    0.32    0.00    0.00    0.00    0.00     0.00    0.00    0.00    0.00
    9   23.00    0.15    2.00    0.01    0.00    0.00   79.32   17.61   41.52    2.98    0.59    0.00    0.00    0.00    0.00     0.00    0.00    0.00    0.00
   10   49.40    1.03    6.15    0.00    0.00    0.00  101.29   19.72   32.69    7.80    2.80    0.00    0.00    0.00    0.00     0.00    0.00    0.00    0.00
   11  115.80   10.98   31.86    1.62   34.51    0.00  119.62   18.48   19.56   44.90   34.19    0.00    0.15    1.79    0.00     0.04    0.00    0.00    0.00
   12  187.70   35.77   54.56   21.52   82.17    0.00  118.94   13.34   13.42  112.45   79.10    0.00    0.23    3.44    0.00     0.15    0.00    0.02    0.00

 1981 1310.40  284.16  323.88  295.22  411.10    0.00  118.94  233.01  459.37  917.29  883.42    0.03    2.48   29.36    0.00   186.78    0.02   22.88    0.00
1
    SWAT May 26   VER 2020/Rev 681                                                  

    General Input/Output section (file.cio):                                        
    5/19/2025 12:00:00 AM ARCGIS-SWAT interface AV                                  
                                                                                    
Annual Summary for Watershed in year    2 of simulation

UNIT                                    PERCO    TILE                           WATER     SED     NO3     NO3     NO3     NO3        N       P       P
TIME     PREC    SURQ    LATQ     GWQ    LATE       Q     SW       ET     PET   YIELD   YIELD    SURQ    LATQ    PERC    CROP  ORGANIC SOLUBLE ORGANIC TILENO3
         (mm)    (mm)    (mm)    (mm)    (mm)    (mm)    (mm)    (mm)    (mm)    (mm)   (t/ha)  ------------------(kg nutrient/ha)-------------------- (kg/ha)
    1  205.90   36.70   62.60   50.41   89.62    0.00  119.72   16.29   16.29  151.05  129.06    0.00    0.17    2.55    0.00    21.44    0.00    2.63    0.00
    2  310.00   88.20   85.20   72.01  120.61    0.00  119.85   17.92   17.92  247.42  290.78    0.00    0.13    2.07    0.00     8.11    0.00    0.99    0.00
    3  142.10   24.81   37.01   89.15   46.10    0.00  117.59   38.26   39.42  153.85   70.03    0.00    0.05    0.61    0.00     0.23    0.00    0.03    0.00
    4   72.50    8.88   16.95   67.11   19.43    0.00  116.10   29.21   34.68   95.87   21.91    0.00    0.02    0.25    0.00     0.06    0.00    0.01    0.00
    5   16.80    0.27    1.50   39.95    0.00    0.00  104.41   26.91   48.26   44.41    0.94    0.00    0.00    0.00    0.00     0.00    0.00    0.00    0.00
    6    7.70    0.00    0.22   17.60    0.00    0.00   91.52   20.46   63.15   19.91    0.00    0.00    0.00    0.00    0.00     0.00    0.00    0.00    0.00
    7    6.70    0.00    0.00    4.64    0.00    0.00   83.50   14.72   54.03    6.31    0.00    0.00    0.00    0.00    0.00     0.00    0.00    0.00    0.00
    8   12.30    0.00    0.39    0.32    0.00    0.00   78.48   16.90   48.18    1.95    0.00    0.00    0.00    0.00    0.00     0.00    0.00    0.00    0.00
    9   21.90    0.25    1.58    0.01    0.00    0.00   81.95   16.25   42.45    2.74    1.29    0.00    0.00    0.00    0.00     0.00    0.00    0.00    0.00
   10   74.00    3.01   12.29    0.02    1.19    0.00  116.46   22.37   26.95   16.00    8.22    0.00    0.02    0.03    0.00     0.01    0.00    0.00    0.00
   11  115.80   14.89   34.37    6.12   45.03    0.00  119.97   18.48   18.65   55.97   42.85    0.00    0.13    1.36    0.00     0.10    0.00    0.01    0.00
   12   77.20   10.50   22.32   20.67   30.12    0.00  119.92   14.48   15.16   54.27   32.44    0.00    0.07    0.87    0.00     0.07    0.00    0.01    0.00

 1982 1062.90  187.51  274.43  368.02  352.11    0.00  119.92  252.25  425.13  849.74  597.52    0.00    0.58    7.74    0.00    30.02    0.00    3.68    0.00
1
    SWAT May 26   VER 2020/Rev 681                                                  

    General Input/Output section (file.cio):                                        
    5/19/2025 12:00:00 AM ARCGIS-SWAT interface AV                                  
                                                                                    
Annual Summary for Watershed in year    3 of simulation

UNIT                                    PERCO    TILE                           WATER     SED     NO3     NO3     NO3     NO3        N       P       P
TIME     PREC    SURQ    LATQ     GWQ    LATE       Q     SW       ET     PET   YIELD   YIELD    SURQ    LATQ    PERC    CROP  ORGANIC SOLUBLE ORGANIC TILENO3
         (mm)    (mm)    (mm)    (mm)    (mm)    (mm)    (mm)    (mm)    (mm)    (mm)   (t/ha)  ------------------(kg nutrient/ha)-------------------- (kg/ha)
    1  152.70   29.39   43.91   31.46   65.22    0.00  120.05   12.41   12.41  105.78   66.26    0.00    0.12    1.65    0.00    18.31    0.00    2.24    0.00
    2  196.00   79.26   40.38   40.63   56.00    0.00  118.73   22.09   22.52  161.57  308.44    0.00    0.08    1.14    0.00    11.72    0.00    1.43    0.00
    3  255.90   68.36   61.54   58.04   90.34    0.00  117.88   33.72   33.72  189.39  240.46    0.00    0.09    1.43    0.00     0.26    0.00    0.03    0.00
    4  102.50   12.95   29.09   63.10   32.09    0.00  114.76   35.68   36.88  107.83   41.52    0.00    0.04    0.44    0.00     0.07    0.00    0.01    0.00
    5   19.80    0.14    1.25   45.52    0.00    0.00  102.71   30.64   51.06   49.22    0.60    0.00    0.00    0.00    0.00     0.00    0.00    0.00    0.00
    6   12.30    0.01    0.35   21.70    0.00    0.00   93.54   21.11   46.77   23.93    0.01    0.00    0.00    0.00    0.00     0.00    0.00    0.00    0.00
    7   11.00    0.00    0.17    7.73    0.00    0.00   86.37   18.01   46.23    9.42    0.00    0.00    0.00    0.00    0.00     0.00    0.00    0.00    0.00
    8   12.80    0.00    0.35    0.66    0.00    0.00   80.81   17.98   49.23    2.15    0.00    0.00    0.00    0.00    0.00     0.00    0.00    0.00    0.00
    9   30.90    0.30    2.71    0.02    0.00    0.00   89.16   19.16   38.63    3.86    1.18    0.00    0.00    0.00    0.00     0.00    0.00    0.00    0.00
   10   48.80    1.81    6.54    0.00    0.00    0.00  103.01   26.95   39.25    8.98    4.91    0.00    0.00    0.00    0.00     0.00    0.00    0.00    0.00
   11   56.00    6.44   10.26    0.03    4.14    0.00  118.33   18.91   24.50   17.17   22.05    0.00    0.03    0.12    0.00     0.02    0.00    0.00    0.00
   12  212.00   38.11   63.71   14.27   94.57    0.00  119.54   12.37   12.45  116.65   81.18    0.00    0.22    2.69    0.00     0.09    0.00    0.01    0.00

 1983 1110.70  236.78  260.27  283.13  342.35    0.00  119.54  269.04  413.66  795.94  766.59    0.01    0.58    7.46    0.00    30.47    0.00    3.73    0.00
1
    SWAT May 26   VER 2020/Rev 681                                                  

    General Input/Output section (file.cio):                                        
    5/19/2025 12:00:00 AM ARCGIS-SWAT interface AV                                  
                                                                                    
Annual Summary for Watershed in year    4 of simulation

UNIT                                    PERCO    TILE                           WATER     SED     NO3     NO3     NO3     NO3        N       P       P
TIME     PREC    SURQ    LATQ     GWQ    LATE       Q     SW       ET     PET   YIELD   YIELD    SURQ    LATQ    PERC    CROP  ORGANIC SOLUBLE ORGANIC TILENO3
         (mm)    (mm)    (mm)    (mm)    (mm)    (mm)    (mm)    (mm)    (mm)    (mm)   (t/ha)  ------------------(kg nutrient/ha)-------------------- (kg/ha)
    1  211.40   41.18   61.22   46.78   89.23    0.00  119.41   18.78   18.78  150.31  118.99    0.00    0.12    1.81    0.00    20.72    0.00    2.54    0.00
    2  434.00  147.73  107.53   74.74  158.83    0.00  119.55   18.55   18.55  331.80  349.87    0.00    0.12    1.88    0.00     9.01    0.00    1.10    0.00
    3  258.50   55.23   69.91  111.36   95.49    0.00  119.02   39.65   39.75  239.72  130.66    0.00    0.05    0.74    0.00     0.32    0.00    0.04    0.00
    4   79.60    5.55   24.34   93.09   25.56    0.00  115.24   31.80   35.19  126.66   12.63    0.00    0.02    0.21    0.00     0.02    0.00    0.00    0.00
    5   41.00    1.39    5.84   58.74    3.32    0.00  108.92   36.98   47.88   69.36    4.69    0.00    0.00    0.03    0.00     0.00    0.00    0.00    0.00
    6   23.60    0.04    1.53   27.49    0.00    0.00  103.40   27.53   40.80   31.77    0.20    0.00    0.00    0.00    0.00     0.00    0.00    0.00    0.00
    7    6.90    0.00    0.03   11.22    0.00    0.00   92.43   17.87   53.80   13.42    0.00    0.00    0.00    0.00    0.00     0.00    0.00    0.00    0.00
    8   13.30    0.00    0.71    1.31    0.00    0.00   88.11   16.91   44.20    3.66    0.00    0.00    0.00    0.00    0.00     0.00    0.00    0.00    0.00
    9   15.70    0.06    1.04    0.12    0.00    0.00   86.40   16.30   38.33    2.39    0.18    0.00    0.00    0.00    0.00     0.00    0.00    0.00    0.00
   10   79.10    5.57   14.75    0.29    5.65    0.00  119.09   20.17   26.61   21.52    8.60    0.00    0.03    0.12    0.00     0.01    0.00    0.00    0.00
   11  122.50   24.56   30.23    4.84   48.03    0.00  119.62   15.03   15.15   60.17   73.32    0.00    0.10    1.16    0.00     0.09    0.00    0.01    0.00
   12  185.00   39.60   54.88   32.82   78.94    0.00  119.76   11.65   11.76  128.51   61.89    0.00    0.13    1.60    0.00     0.12    0.00    0.02    0.00

 1984 1470.60  320.92  372.02  462.80  505.05    0.00  119.76  271.22  390.82 1179.29  761.03    0.01    0.58    7.54    0.00    30.29    0.00    3.71    0.00
1
    SWAT May 26   VER 2020/Rev 681                                                  

    General Input/Output section (file.cio):                                        
    5/19/2025 12:00:00 AM ARCGIS-SWAT interface AV                                  
                                                                                    
Annual Summary for Watershed in year    5 of simulation

UNIT                                    PERCO    TILE                           WATER     SED     NO3     NO3     NO3     NO3        N       P       P
TIME     PREC    SURQ    LATQ     GWQ    LATE       Q     SW       ET     PET   YIELD   YIELD    SURQ    LATQ    PERC    CROP  ORGANIC SOLUBLE ORGANIC TILENO3
         (mm)    (mm)    (mm)    (mm)    (mm)    (mm)    (mm)    (mm)    (mm)    (mm)   (t/ha)  ------------------(kg nutrient/ha)-------------------- (kg/ha)
    1  162.30   23.63   50.78   53.30   72.60    0.00  119.79   15.12   15.12  129.28   64.16    0.00    0.08    1.17    0.00    15.17    0.00    1.86    0.00
    2  217.30   52.35   61.59   57.91   87.32    0.00  119.14   17.52   17.61  173.78  160.16    0.00    0.08    1.09    0.00    10.63    0.00    1.30    0.00
    3  192.10   34.31   52.19   73.64   74.19    0.00  118.21   30.86   33.07  162.57   77.44    0.00    0.05    0.76    0.00     1.66    0.00    0.20    0.00
    4   68.20    2.27   20.46   66.46   17.96    0.00  115.79   34.63   37.34   92.18    5.45    0.00    0.02    0.18    0.00     0.02    0.00    0.00    0.00
    5   23.50    0.24    2.00   42.70    0.00    0.00  106.51   30.72   47.87   47.57    0.58    0.00    0.00    0.00    0.00     0.00    0.00    0.00    0.00
    6   15.30    0.00    0.68   19.42    0.00    0.00   96.60   24.59   49.96   22.18    0.00    0.00    0.00    0.00    0.00     0.00    0.00    0.00    0.00
    7    7.50    0.00    0.04    6.17    0.00    0.00   88.04   16.04   50.02    7.86    0.00    0.00    0.00    0.00    0.00     0.00    0.00    0.00    0.00
    8   13.10    0.10    0.65    0.44    0.00    0.00   84.68   15.61   45.26    2.43    0.62    0.00    0.00    0.00    0.00     0.00    0.00    0.00    0.00
    9   28.20    0.08    2.73    0.01    0.00    0.00   90.24   19.68   45.24    3.72    0.24    0.00    0.00    0.00    0.00     0.00    0.00    0.00    0.00
   10   36.60    2.79    3.91    0.00    0.00    0.00  102.66   16.98   33.10    7.36   12.90    0.00    0.00    0.00    0.00     0.09    0.00    0.01    0.00
   11   60.70    9.18   11.81    0.23    4.92    0.00  118.35   19.26   23.61   21.76   25.31    0.00    0.03    0.12    0.00     0.25    0.00    0.03    0.00
   12  162.60   30.56   45.26    8.54   69.29    0.00  119.04   13.12   13.24   84.74   93.41    0.00    0.16    1.86    0.00     0.79    0.00    0.10    0.00

 1985  987.40  155.51  252.13  328.82  326.29    0.00  119.04  254.11  411.44  755.43  440.28    0.01    0.43    5.18    0.00    28.60    0.00    3.50    0.00
1
    SWAT May 26   VER 2020/Rev 681                                                  

    General Input/Output section (file.cio):                                        
    5/19/2025 12:00:00 AM ARCGIS-SWAT interface AV                                  
                                                                                    
Annual Summary for Watershed in year    6 of simulation

UNIT                                    PERCO    TILE                           WATER     SED     NO3     NO3     NO3     NO3        N       P       P
TIME     PREC    SURQ    LATQ     GWQ    LATE       Q     SW       ET     PET   YIELD   YIELD    SURQ    LATQ    PERC    CROP  ORGANIC SOLUBLE ORGANIC TILENO3
         (mm)    (mm)    (mm)    (mm)    (mm)    (mm)    (mm)    (mm)    (mm)    (mm)   (t/ha)  ------------------(kg nutrient/ha)-------------------- (kg/ha)
    1  296.10   72.58   83.63   42.06  122.06    0.00  119.05   17.23   17.23  199.28  222.52    0.00    0.16    2.32    0.00    27.19    0.00    3.33    0.00
    2  312.30   97.19   77.42   72.66  113.02    0.00  119.18   23.39   23.64  249.00  311.60    0.00    0.09    1.29    0.00     2.72    0.00    0.33    0.00
    3  182.80   22.01   57.83   96.72   73.61    0.00  116.20   36.84   38.07  179.65   59.38    0.00    0.05    0.65    0.00     0.09    0.00    0.01    0.00
    4  117.50   17.10   23.67   79.81   29.77    0.00  118.23   43.21   43.45  123.47   51.25    0.00    0.02    0.26    0.00     0.06    0.00    0.01    0.00
    5   35.30    0.69    7.60   51.37    3.23    0.00  110.13   34.69   51.21   62.91    1.04    0.00    0.01    0.03    0.00     0.02    0.00    0.00    0.00
    6   10.10    0.00    0.64   24.49    0.00    0.00   97.19   22.80   51.26   27.53    0.00    0.00    0.00    0.00    0.00     0.00    0.00    0.00    0.00
    7   16.80    0.00    0.82    9.36    0.00    0.00   92.28   20.86   46.50   12.11    0.00    0.00    0.00    0.00    0.00     0.00    0.00    0.00    0.00
    8   23.10    1.43    2.07    0.73    0.00    0.00   90.13   21.75   58.25    5.68    9.48    0.00    0.00    0.00    0.00     0.00    0.00    0.00    0.00
    9   25.00    0.29    2.32    0.03    0.00    0.00   91.93   20.56   41.60    3.69    1.03    0.00    0.00    0.00    0.00     0.00    0.00    0.00    0.00
   10   37.10    1.16    4.24    0.00    0.00    0.00  103.83   19.60   29.38    6.20    3.16    0.00    0.00    0.00    0.00     0.00    0.00    0.00    0.00
   11   61.50    7.24   13.83    1.35    8.55    0.00  117.18   18.75   20.50   23.02   15.79    0.00    0.04    0.20    0.00     0.03    0.00    0.00    0.00
   12  148.70   28.48   38.94    7.81   59.74    0.00  119.79   15.16   15.29   75.71   71.99    0.00    0.13    1.55    0.00     0.10    0.00    0.01    0.00

 1986 1266.30  248.16  313.02  386.39  409.98    0.00  119.79  294.86  436.39  968.25  747.24    0.01    0.50    6.30    0.00    30.22    0.00    3.70    0.00
1
    SWAT May 26   VER 2020/Rev 681                                                  

    General Input/Output section (file.cio):                                        
    5/19/2025 12:00:00 AM ARCGIS-SWAT interface AV                                  
                                                                                    
Annual Summary for Watershed in year    7 of simulation

UNIT                                    PERCO    TILE                           WATER     SED     NO3     NO3     NO3     NO3        N       P       P
TIME     PREC    SURQ    LATQ     GWQ    LATE       Q     SW       ET     PET   YIELD   YIELD    SURQ    LATQ    PERC    CROP  ORGANIC SOLUBLE ORGANIC TILENO3
         (mm)    (mm)    (mm)    (mm)    (mm)    (mm)    (mm)    (mm)    (mm)    (mm)   (t/ha)  ------------------(kg nutrient/ha)-------------------- (kg/ha)
    1  265.30   66.05   72.80   40.12  106.29    0.00  118.56   20.35   20.35  179.74  218.95    0.00    0.15    2.07    0.00    26.39    0.00    3.23    0.00
    2  224.90   67.61   56.30   65.57   78.03    0.00  119.28   23.51   23.51  191.49  272.96    0.00    0.07    1.03    0.00     2.69    0.00    0.33    0.00
    3   92.20   10.19   27.70   72.23   32.16    0.00  110.32   34.67   40.81  112.57   25.73    0.00    0.03    0.38    0.00     0.03    0.00    0.00    0.00
    4   34.80    4.83    3.66   45.62    1.21    0.00  105.02   30.41   44.35   56.40   21.93    0.00    0.00    0.01    0.00     0.02    0.00    0.00    0.00
    5   14.40    0.03    0.93   22.67    0.00    0.00   95.88   22.58   54.28   25.61    0.07    0.00    0.00    0.00    0.00     0.00    0.00    0.00    0.00
    6    8.30    0.00    0.07    7.84    0.00    0.00   88.14   15.96   51.03    9.40    0.00    0.00    0.00    0.00    0.00     0.00    0.00    0.00    0.00
    7   10.30    0.00    0.27    0.66    0.00    0.00   80.08   18.10   56.12    2.10    0.00    0.00    0.00    0.00    0.00     0.00    0.00    0.00    0.00
    8   14.90    0.00    0.85    0.01    0.00    0.00   76.64   17.42   57.56    1.73    0.00    0.00    0.00    0.00    0.00     0.00    0.00    0.00    0.00
    9   23.50    0.08    1.90    0.00    0.00    0.00   78.71   19.41   53.01    2.61    0.39    0.00    0.00    0.00    0.00     0.00    0.00    0.00    0.00
   10   34.40    1.11    3.91    0.00    0.00    0.00   88.57   19.57   31.91    5.50    2.99    0.00    0.00    0.00    0.00     0.00    0.00    0.00    0.00
   11   82.70    4.26   17.99    0.09    9.59    0.00  119.07   19.15   21.24   22.68   11.94    0.00    0.05    0.30    0.00     0.01    0.00    0.00    0.00
   12  113.70   10.49   37.15   11.33   51.68    0.00  119.46   14.37   14.45   59.43   30.33    0.00    0.13    1.57    0.00     0.02    0.00    0.00    0.00

 1987  919.40  164.65  223.54  266.14  278.96    0.00  119.46  255.50  468.62  669.26  585.28    0.00    0.44    5.36    0.00    29.16    0.00    3.57    0.00
1
    SWAT May 26   VER 2020/Rev 681                                                  

    General Input/Output section (file.cio):                                        
    5/19/2025 12:00:00 AM ARCGIS-SWAT interface AV                                  
                                                                                    
Annual Summary for Watershed in year    8 of simulation

UNIT                                    PERCO    TILE                           WATER     SED     NO3     NO3     NO3     NO3        N       P       P
TIME     PREC    SURQ    LATQ     GWQ    LATE       Q     SW       ET     PET   YIELD   YIELD    SURQ    LATQ    PERC    CROP  ORGANIC SOLUBLE ORGANIC TILENO3
         (mm)    (mm)    (mm)    (mm)    (mm)    (mm)    (mm)    (mm)    (mm)    (mm)   (t/ha)  ------------------(kg nutrient/ha)-------------------- (kg/ha)
    1  186.60   28.25   56.03   31.78   83.01    0.00  119.73   17.00   17.00  116.88   45.49    0.00    0.14    2.03    0.00    12.50    0.00    1.53    0.00
    2  190.60   57.25   47.95   56.07   63.27    0.00  119.20   25.25   25.93  162.73  148.62    0.00    0.08    1.10    0.00    13.84    0.00    1.69    0.00
    3  149.20   27.70   34.59   58.68   48.00    0.00  119.84   36.28   36.99  122.78  108.27    0.00    0.05    0.74    0.00     1.31    0.00    0.16    0.00
    4   87.10    8.49   22.43   47.54   24.31    0.00  117.21   36.59   38.04   80.61   20.36    0.00    0.03    0.36    0.00     0.12    0.00    0.01    0.00
    5   26.40    0.30    2.40   32.07    0.00    0.00  105.54   35.51   58.96   36.72    0.96    0.00    0.00    0.00    0.00     0.00    0.00    0.00    0.00
    6    6.40    0.00    0.20   14.81    0.00    0.00   93.45   18.39   56.34   16.55    0.00    0.00    0.00    0.00    0.00     0.00    0.00    0.00    0.00
    7    5.90    0.00    0.12    3.17    0.00    0.00   82.67   16.56   62.57    4.53    0.00    0.00    0.00    0.00    0.00     0.00    0.00    0.00    0.00
    8    9.60    0.00    0.50    0.16    0.00    0.00   77.61   14.15   54.40    1.59    0.00    0.00    0.00    0.00    0.00     0.00    0.00    0.00    0.00
    9   21.10    0.09    1.60    0.00    0.00    0.00   79.84   17.13   40.21    2.36    0.24    0.00    0.00    0.00    0.00     0.00    0.00    0.00    0.00
   10   37.40    0.94    4.50    0.00    0.00    0.00   92.50   19.31   32.13    5.96    1.88    0.00    0.00    0.00    0.00     0.00    0.00    0.00    0.00
   11   59.40    2.13   10.93    0.02    1.66    0.00  117.87   18.42   19.45   13.44    4.51    0.00    0.02    0.04    0.00     0.00    0.00    0.00    0.00
   12  129.90   15.54   38.71    4.25   54.65    0.00  119.25   18.33   19.28   58.83   26.84    0.00    0.15    1.73    0.00     0.16    0.00    0.02    0.00

 1988  909.60  140.69  219.96  248.55  274.89    0.00  119.25  272.93  461.31  622.99  357.18    0.00    0.47    6.01    0.00    27.93    0.00    3.42    0.00
1
    SWAT May 26   VER 2020/Rev 681                                                  

    General Input/Output section (file.cio):                                        
    5/19/2025 12:00:00 AM ARCGIS-SWAT interface AV                                  
                                                                                    
Annual Summary for Watershed in year    9 of simulation

UNIT                                    PERCO    TILE                           WATER     SED     NO3     NO3     NO3     NO3        N       P       P
TIME     PREC    SURQ    LATQ     GWQ    LATE       Q     SW       ET     PET   YIELD   YIELD    SURQ    LATQ    PERC    CROP  ORGANIC SOLUBLE ORGANIC TILENO3
         (mm)    (mm)    (mm)    (mm)    (mm)    (mm)    (mm)    (mm)    (mm)    (mm)   (t/ha)  ------------------(kg nutrient/ha)-------------------- (kg/ha)
    1  251.30   60.08   71.47   34.63  105.85    0.00  119.84   11.88   11.88  166.98  198.46    0.00    0.17    2.47    0.00    25.62    0.00    3.13    0.00
    2  280.20   83.44   74.72   65.02  105.79    0.00  119.36   18.33   18.33  224.71  207.15    0.00    0.10    1.52    0.00     3.44    0.00    0.42    0.00
    3  232.70   37.06   66.81   89.10   96.61    0.00  118.38   31.44   31.44  195.50   84.72    0.00    0.07    0.99    0.00     0.24    0.00    0.03    0.00
    4   60.00    3.01   15.32   78.88   11.56    0.00  115.03   37.17   40.62  100.17   10.47    0.00    0.01    0.11    0.00     0.01    0.00    0.00    0.00
    5   16.70    0.09    1.10   47.70    0.00    0.00  102.06   28.49   54.46   51.66    0.26    0.00    0.00    0.00    0.00     0.00    0.00    0.00    0.00
    6    9.30    0.00    0.28   21.20    0.00    0.00   92.92   18.26   49.28   23.67    0.00    0.00    0.00    0.00    0.00     0.00    0.00    0.00    0.00
    7    4.60    0.00    0.00    6.91    0.00    0.00   83.87   13.64   65.10    8.67    0.00    0.00    0.00    0.00    0.00     0.00    0.00    0.00    0.00
    8   10.90    0.00    0.24    0.50    0.00    0.00   77.57   16.97   53.36    2.05    0.00    0.00    0.00    0.00    0.00     0.00    0.00    0.00    0.00
    9   19.00    0.02    1.52    0.01    0.00    0.00   80.12   14.73   38.94    2.51    0.09    0.00    0.00    0.00    0.00     0.00    0.00    0.00    0.00
   10   71.10    1.75   11.80    0.01    0.79    0.00  113.49   22.97   27.82   14.28    5.65    0.00    0.01    0.02    0.00     0.00    0.00    0.00    0.00
   11   61.40    5.66   15.16    2.72   16.32    0.00  119.67   17.73   18.48   24.11   21.50    0.00    0.05    0.41    0.00     0.03    0.00    0.00    0.00
   12   38.40    1.67    9.68    6.98    8.92    0.00  117.21   21.34   27.89   18.88    4.19    0.00    0.03    0.24    0.00     0.00    0.00    0.00    0.00

 1989 1055.60  192.78  268.10  353.66  345.83    0.00  117.21  252.94  437.60  833.18  532.49    0.00    0.44    5.77    0.00    29.34    0.00    3.59    0.00
1
    SWAT May 26   VER 2020/Rev 681                                                  

    General Input/Output section (file.cio):                                        
    5/19/2025 12:00:00 AM ARCGIS-SWAT interface AV                                  
                                                                                    
Annual Summary for Watershed in year   10 of simulation

UNIT                                    PERCO    TILE                           WATER     SED     NO3     NO3     NO3     NO3        N       P       P
TIME     PREC    SURQ    LATQ     GWQ    LATE       Q     SW       ET     PET   YIELD   YIELD    SURQ    LATQ    PERC    CROP  ORGANIC SOLUBLE ORGANIC TILENO3
         (mm)    (mm)    (mm)    (mm)    (mm)    (mm)    (mm)    (mm)    (mm)    (mm)   (t/ha)  ------------------(kg nutrient/ha)-------------------- (kg/ha)
    1  138.70   12.03   44.01   15.62   63.91    0.00  119.56   14.84   14.84   72.30   23.37    0.00    0.14    1.68    0.00     8.15    0.00    1.00    0.00
    2   73.20    8.02   20.80   29.32   28.16    0.00  118.41   17.26   18.13   58.97   25.83    0.00    0.05    0.65    0.00     3.20    0.00    0.39    0.00
    3   67.90    5.74   16.46   32.73   16.72    0.00  114.97   33.95   39.58   56.14   18.45    0.00    0.03    0.37    0.00     1.66    0.00    0.20    0.00
    4   49.80    4.69    8.77   22.65    7.01    0.00  109.54   35.09   44.67   37.23   15.04    0.00    0.01    0.16    0.00     1.31    0.00    0.16    0.00
    5   27.00    0.41    2.41   13.46    0.00    0.00  103.90   29.71   56.74   17.30    1.51    0.00    0.00    0.00    0.00     0.03    0.00    0.00    0.00
    6   21.50    0.17    1.50    3.48    0.00    0.00   99.46   24.30   49.76    5.94    0.29    0.00    0.00    0.00    0.00     0.01    0.00    0.00    0.00
    7    8.10    0.00    0.10    0.19    0.00    0.00   86.08   21.48   60.72    0.91    0.00    0.00    0.00    0.00    0.00     0.00    0.00    0.00    0.00
    8   12.10    0.01    0.68    0.00    0.00    0.00   81.33   16.11   49.92    1.16    0.05    0.00    0.00    0.00    0.00     0.00    0.00    0.00    0.00
    9   19.60    0.00    1.26    0.00    0.00    0.00   81.72   17.94   38.14    1.59    0.00    0.00    0.00    0.00    0.00     0.00    0.00    0.00    0.00
   10   58.40    1.25    8.48    0.00    0.27    0.00  108.46   21.18   30.23    9.99    2.88    0.00    0.01    0.01    0.00     0.07    0.00    0.01    0.00
   11  116.20   11.28   31.47    3.00   40.79    0.00  119.78   18.74   18.84   45.95   24.10    0.00    0.13    1.55    0.00     1.68    0.00    0.20    0.00
   12  128.20   13.80   41.25   20.50   57.85    0.00  119.77   15.41   16.00   76.10   39.90    0.00    0.14    1.91    0.00     2.52    0.00    0.31    0.00

 1990  720.70   57.40  177.18  140.96  214.71    0.00  119.77  266.00  437.57  383.57  151.42    0.01    0.52    6.33    0.00    18.62    0.00    2.28    0.00
1
    SWAT May 26   VER 2020/Rev 681                                                  

    General Input/Output section (file.cio):                                        
    5/19/2025 12:00:00 AM ARCGIS-SWAT interface AV                                  
                                                                                    
Annual Summary for Watershed in year   11 of simulation

UNIT                                    PERCO    TILE                           WATER     SED     NO3     NO3     NO3     NO3        N       P       P
TIME     PREC    SURQ    LATQ     GWQ    LATE       Q     SW       ET     PET   YIELD   YIELD    SURQ    LATQ    PERC    CROP  ORGANIC SOLUBLE ORGANIC TILENO3
         (mm)    (mm)    (mm)    (mm)    (mm)    (mm)    (mm)    (mm)    (mm)    (mm)   (t/ha)  ------------------(kg nutrient/ha)-------------------- (kg/ha)
    1  102.20    6.12   33.43   38.41   45.70    0.00  119.25   17.81   18.29   78.94   16.76    0.00    0.09    1.24    0.00     5.18    0.00    0.63    0.00
    2  128.50   22.74   34.23   41.03   47.20    0.00  118.07   25.14   25.73   99.17   75.22    0.00    0.07    1.07    0.00    14.19    0.00    1.73    0.00
    3  164.80   22.72   49.62   52.60   63.86    0.00  118.34   31.23   33.36  126.76   55.01    0.00    0.08    1.18    0.00     5.06    0.00    0.62    0.00
    4   59.00    3.69   12.97   46.64   14.44    0.00  113.95   32.40   35.96   65.20   11.55    0.00    0.02    0.25    0.00     0.38    0.00    0.05    0.00
    5   25.00    0.59    2.76   29.46    0.29    0.00  104.15   31.24   51.31   34.61    1.49    0.00    0.00    0.00    0.00     0.00    0.00    0.00    0.00
    6    9.70    0.00    0.20   13.11    0.00    0.00   92.38   21.26   59.83   14.74    0.00    0.00    0.00    0.00    0.00     0.00    0.00    0.00    0.00
    7    5.80    0.00    0.00    2.42    0.00    0.00   83.16   15.02   51.82    3.55    0.00    0.00    0.00    0.00    0.00     0.00    0.00    0.00    0.00
    8   10.10    0.00    0.47    0.09    0.00    0.00   78.05   14.74   53.59    1.41    0.00    0.00    0.00    0.00    0.00     0.00    0.00    0.00    0.00
    9   14.80    0.00    1.11    0.00    0.00    0.00   78.34   13.38   38.80    1.73    0.00    0.00    0.00    0.00    0.00     0.00    0.00    0.00    0.00
   10   47.90    0.88    5.33    0.00    0.00    0.00  101.70   17.37   29.64    6.68    2.93    0.00    0.00    0.00    0.00     0.01    0.00    0.00    0.00
   11   47.90    1.44    9.47    0.04    1.53    0.00  116.46   20.49   23.52   11.30    3.81    0.00    0.02    0.04    0.00     0.04    0.00    0.00    0.00
   12   64.50    3.92   18.15    1.94   23.35    0.00  119.98   14.79   16.13   24.29    8.53    0.00    0.07    0.82    0.00     0.22    0.00    0.03    0.00

 1991  680.20   62.10  167.75  225.75  196.35    0.00  119.98  254.89  437.99  468.39  175.30    0.00    0.36    4.60    0.00    25.09    0.00    3.07    0.00
1
    SWAT May 26   VER 2020/Rev 681                                                  

    General Input/Output section (file.cio):                                        
    5/19/2025 12:00:00 AM ARCGIS-SWAT interface AV                                  
                                                                                    
Annual Summary for Watershed in year   12 of simulation

UNIT                                    PERCO    TILE                           WATER     SED     NO3     NO3     NO3     NO3        N       P       P
TIME     PREC    SURQ    LATQ     GWQ    LATE       Q     SW       ET     PET   YIELD   YIELD    SURQ    LATQ    PERC    CROP  ORGANIC SOLUBLE ORGANIC TILENO3
         (mm)    (mm)    (mm)    (mm)    (mm)    (mm)    (mm)    (mm)    (mm)    (mm)   (t/ha)  ------------------(kg nutrient/ha)-------------------- (kg/ha)
    1   94.60   13.10   29.45   15.98   38.18    0.00  119.37   16.14   17.73   59.03   28.32    0.00    0.11    1.25    0.00     9.33    0.00    1.14    0.00
    2   96.40   10.08   25.62   23.03   37.00    0.00  119.48   21.57   22.58   59.41   22.83    0.00    0.08    1.11    0.00     4.37    0.00    0.53    0.00
    3  101.00   13.13   23.14   31.75   28.31    0.00  118.72   37.03   38.79   68.83   34.67    0.00    0.06    0.76    0.00     5.31    0.00    0.65    0.00
    4   36.60    3.12    8.33   26.16    5.20    0.00  111.97   29.02   42.03   38.87   10.15    0.00    0.02    0.14    0.00     0.98    0.00    0.12    0.00
    5   11.40    0.15    0.91   15.11    0.00    0.00   94.83   27.64   73.73   17.16    0.41    0.00    0.00    0.00    0.00     0.01    0.00    0.00    0.00
    6    8.60    0.00    0.17    3.87    0.00    0.00   83.83   19.43   71.87    4.81    0.00    0.00    0.00    0.00    0.00     0.00    0.00    0.00    0.00
    7    6.10    0.00    0.13    0.22    0.00    0.00   74.86   14.94   69.07    0.96    0.00    0.00    0.00    0.00    0.00     0.00    0.00    0.00    0.00
    8   13.20    0.00    0.71    0.00    0.00    0.00   71.78   15.56   55.44    1.17    0.00    0.00    0.00    0.00    0.00     0.00    0.00    0.00    0.00
    9   13.30    0.08    0.62    0.00    0.00    0.00   71.00   13.23   41.70    1.03    0.15    0.00    0.00    0.00    0.00     0.00    0.00    0.00    0.00
   10   78.10    5.46   13.16    0.00    0.82    0.00  106.92   22.60   31.41   18.88   17.85    0.00    0.02    0.03    0.00     0.74    0.00    0.09    0.00
   11   45.60    5.00    8.27    0.35    3.16    0.00  118.01   18.09   20.41   13.81   14.23    0.00    0.02    0.12    0.00     1.33    0.00    0.16    0.00
   12   73.80    6.58   19.14    1.73   26.01    0.00  119.13   19.32   22.19   27.61   20.66    0.00    0.09    1.15    0.00     1.33    0.00    0.16    0.00

 1992  578.70   56.69  129.65  118.20  138.67    0.00  119.13  254.55  506.95  311.56  149.27    0.01    0.39    4.55    0.00    23.40    0.00    2.86    0.00
1
    SWAT May 26   VER 2020/Rev 681                                                  

    General Input/Output section (file.cio):                                        
    5/19/2025 12:00:00 AM ARCGIS-SWAT interface AV                                  
                                                                                    
Annual Summary for Watershed in year   13 of simulation

UNIT                                    PERCO    TILE                           WATER     SED     NO3     NO3     NO3     NO3        N       P       P
TIME     PREC    SURQ    LATQ     GWQ    LATE       Q     SW       ET     PET   YIELD   YIELD    SURQ    LATQ    PERC    CROP  ORGANIC SOLUBLE ORGANIC TILENO3
         (mm)    (mm)    (mm)    (mm)    (mm)    (mm)    (mm)    (mm)    (mm)    (mm)   (t/ha)  ------------------(kg nutrient/ha)-------------------- (kg/ha)
    1  279.80   79.96   70.87   19.87  108.22    0.00  119.56   16.28   16.55  170.89  198.59    0.00    0.25    3.66    0.00    36.11    0.00    4.41    0.00
    2  302.00  107.84   73.08   61.20  103.30    0.00  119.50   19.31   19.64  243.45  395.87    0.00    0.13    2.03    0.00     3.83    0.00    0.47    0.00
    3  194.30   38.91   56.47   86.42   73.17    0.00  118.88   30.31   30.56  184.30  137.19    0.00    0.07    1.01    0.00     0.17    0.00    0.02    0.00
    4   93.10    5.74   24.15   70.59   29.93    0.00  117.02   35.48   36.18  103.08   11.93    0.00    0.03    0.39    0.00     0.01    0.00    0.00    0.00
    5   30.70    0.71    3.45   47.05    1.12    0.00  106.28   36.34   54.93   53.77    2.95    0.00    0.00    0.01    0.00     0.00    0.00    0.00    0.00
    6    9.90    0.00    0.38   22.14    0.00    0.00   94.04   21.79   61.51   24.57    0.00    0.00    0.00    0.00    0.00     0.00    0.00    0.00    0.00
    7    7.70    0.00    0.15    7.46    0.00    0.00   82.95   18.64   76.36    9.26    0.00    0.00    0.00    0.00    0.00     0.00    0.00    0.00    0.00
    8   11.90    0.00    0.48    0.60    0.00    0.00   76.41   17.96   60.07    2.32    0.00    0.00    0.00    0.00    0.00     0.00    0.00    0.00    0.00
    9   25.70    0.05    2.10    0.02    0.00    0.00   81.52   18.27   40.77    3.06    0.08    0.00    0.00    0.00    0.00     0.00    0.00    0.00    0.00
   10   95.20    4.68   18.57    0.09    8.07    0.00  117.04   27.42   31.64   24.02    8.45    0.00    0.03    0.20    0.00     0.00    0.00    0.00    0.00
   11  170.10   24.12   49.78   11.63   74.24    0.00  119.09   16.99   17.92   86.12   62.96    0.00    0.14    1.83    0.00     0.05    0.00    0.01    0.00
   12  210.10   33.94   65.70   42.01   94.94    0.00  119.66   14.66   14.78  142.85   93.16    0.00    0.11    1.70    0.15     0.13    0.00    0.01    0.00

 1993 1430.50  295.95  365.17  369.07  492.98    0.00  119.66  273.46  460.91 1047.69  911.18    0.01    0.77   10.85    0.15    40.29    0.01    4.92    0.00
1
    SWAT May 26   VER 2020/Rev 681                                                  

    General Input/Output section (file.cio):                                        
    5/19/2025 12:00:00 AM ARCGIS-SWAT interface AV                                  
                                                                                    
Annual Summary for Watershed in year   14 of simulation

UNIT                                    PERCO    TILE                           WATER     SED     NO3     NO3     NO3     NO3        N       P       P
TIME     PREC    SURQ    LATQ     GWQ    LATE       Q     SW       ET     PET   YIELD   YIELD    SURQ    LATQ    PERC    CROP  ORGANIC SOLUBLE ORGANIC TILENO3
         (mm)    (mm)    (mm)    (mm)    (mm)    (mm)    (mm)    (mm)    (mm)    (mm)   (t/ha)  ------------------(kg nutrient/ha)-------------------- (kg/ha)
    1  275.20   63.97   76.22   70.14  113.46    0.00  119.24   19.50   19.51  211.89  142.58    0.00    0.09    1.33    0.00    22.77    0.00    2.78    0.00
    2  368.80  116.22   95.20   87.68  134.12    0.00  118.48   26.39   26.40  301.93  247.75    0.00    0.07    0.99    0.00     5.03    0.00    0.61    0.00
    3  169.20   20.08   50.56  106.53   66.14    0.00  118.81   34.25   34.55  180.89   52.09    0.00    0.03    0.43    0.00     0.11    0.00    0.01    0.00
    4  110.20    8.37   31.65   83.24   38.51    0.00  117.43   34.57   37.46  126.97   18.60    0.00    0.02    0.28    0.00     0.02    0.00    0.00    0.00
    5   31.30    1.15    5.17   56.44    3.22    0.00  100.00   39.96   72.96   66.26    2.78    0.00    0.00    0.03    0.00     0.00    0.00    0.00    0.00
    6    9.20    0.00    0.18   27.37    0.00    0.00   88.60   20.43   71.82   30.33    0.00    0.00    0.00    0.00    0.00     0.00    0.00    0.00    0.00
    7    5.00    0.00    0.00    9.66    0.00    0.00   78.20   15.40   69.27   11.90    0.00    0.00    0.00    0.00    0.00     0.00    0.00    0.00    0.00
    8   12.80    0.00    0.67    0.76    0.00    0.00   73.86   16.39   62.40    3.11    0.00    0.00    0.00    0.00    0.00     0.00    0.00    0.00    0.00
    9   36.80    2.05    3.41    0.14    0.00    0.00   84.62   20.31   41.66    6.80    3.96    0.00    0.00    0.00    0.00     0.00    0.00    0.00    0.00
   10   41.30    1.42    5.94    0.00    0.00    0.00   97.44   21.45   35.55    8.29    5.53    0.00    0.00    0.00    0.00     0.00    0.00    0.00    0.00
   11   91.60   15.89   18.89    1.81   13.23    0.00  119.89   19.92   24.36   37.28   61.25    0.00    0.05    0.29    0.00     0.15    0.00    0.02    0.00
   12  154.10   26.07   44.10   11.87   68.27    0.00  119.57   12.51   12.59   82.71   53.63    0.00    0.12    1.53    0.00     0.11    0.00    0.01    0.00

 1994 1305.50  255.23  331.98  455.62  436.94    0.00  119.57  281.07  508.53 1068.36  588.17    0.01    0.39    4.88    0.00    28.19    0.00    3.44    0.00
1
    SWAT May 26   VER 2020/Rev 681                                                  

    General Input/Output section (file.cio):                                        
    5/19/2025 12:00:00 AM ARCGIS-SWAT interface AV                                  
                                                                                    
Annual Summary for Watershed in year   15 of simulation

UNIT                                    PERCO    TILE                           WATER     SED     NO3     NO3     NO3     NO3        N       P       P
TIME     PREC    SURQ    LATQ     GWQ    LATE       Q     SW       ET     PET   YIELD   YIELD    SURQ    LATQ    PERC    CROP  ORGANIC SOLUBLE ORGANIC TILENO3
         (mm)    (mm)    (mm)    (mm)    (mm)    (mm)    (mm)    (mm)    (mm)    (mm)   (t/ha)  ------------------(kg nutrient/ha)-------------------- (kg/ha)
    1  181.00   40.09   51.68   37.59   68.76    0.00  120.01   22.63   23.78  130.51  140.93    0.00    0.09    1.23    0.00    22.48    0.00    2.75    0.00
    2  144.80   25.18   41.87   49.02   58.34    0.00  119.25   20.46   20.62  117.56   58.94    0.00    0.06    0.85    0.00     1.59    0.00    0.19    0.00
    3  192.60   34.79   51.24   62.48   73.45    0.00  118.78   31.91   31.91  150.54   79.29    0.00    0.06    0.88    0.00     1.63    0.00    0.20    0.00
    4   77.30    7.61   23.61   59.07   26.14    0.00  109.80   32.41   41.39   92.67   11.48    0.00    0.03    0.29    0.00     0.12    0.00    0.01    0.00
    5   14.90    0.01    0.88   39.31    0.00    0.00   94.46   29.36   75.85   42.46    0.02    0.00    0.00    0.00    0.00     0.00    0.00    0.00    0.00
    6    5.10    0.00    0.09   17.84    0.00    0.00   81.91   17.51   84.35   19.72    0.00    0.00    0.00    0.00    0.00     0.00    0.00    0.00    0.00
    7    5.00    0.00    0.15    3.31    0.00    0.00   69.90   16.91   93.38    4.89    0.00    0.00    0.00    0.00    0.00     0.00    0.00    0.00    0.00
    8    6.20    0.00    0.14    0.12    0.00    0.00   63.16   12.80   77.16    1.34    0.00    0.00    0.00    0.00    0.00     0.00    0.00    0.00    0.00
    9   25.70    0.56    2.84    0.00    0.00    0.00   73.18   12.16   44.56    4.18    1.84    0.01    0.02    0.00    0.00     0.00    0.00    0.00    0.00
   10   52.50    1.48    6.66    0.00    0.00    0.00   97.44   19.32   36.92    8.74    4.65    0.00    0.00    0.00    0.00     0.00    0.00    0.00    0.00
   11  127.00   24.13   34.22    2.82   32.85    0.00  114.14   19.95   22.66   61.64   54.38    0.00    0.09    0.87    0.00     0.66    0.00    0.08    0.00
   12  144.20   41.10   31.33   13.61   47.43    0.00  119.73   14.93   18.02   86.50  128.40    0.00    0.08    1.18    0.00     1.15    0.00    0.14    0.00

 1995  976.30  174.94  244.72  285.17  306.98    0.00  119.73  250.34  570.61  720.74  479.92    0.01    0.43    5.29    0.00    27.64    0.00    3.38    0.00
1
    SWAT May 26   VER 2020/Rev 681                                                  

    General Input/Output section (file.cio):                                        
    5/19/2025 12:00:00 AM ARCGIS-SWAT interface AV                                  
                                                                                    
Annual Summary for Watershed in year   16 of simulation

UNIT                                    PERCO    TILE                           WATER     SED     NO3     NO3     NO3     NO3        N       P       P
TIME     PREC    SURQ    LATQ     GWQ    LATE       Q     SW       ET     PET   YIELD   YIELD    SURQ    LATQ    PERC    CROP  ORGANIC SOLUBLE ORGANIC TILENO3
         (mm)    (mm)    (mm)    (mm)    (mm)    (mm)    (mm)    (mm)    (mm)    (mm)   (t/ha)  ------------------(kg nutrient/ha)-------------------- (kg/ha)
    1  237.70   44.55   73.48   42.01  104.08    0.00  119.70   16.92   16.92  161.25  105.72    0.00    0.13    1.89    0.00    19.00    0.00    2.32    0.00
    2  292.80   83.56   74.70   68.25  109.72    0.00  118.51   24.38   24.38  228.11  217.55    0.00    0.08    1.28    0.00     7.77    0.00    0.95    0.00
    3  184.90   36.51   50.24   87.17   68.31    0.00  118.53   30.28   32.59  176.70  137.33    0.00    0.04    0.62    0.00     0.74    0.00    0.09    0.00
    4   99.40   13.52   28.74   73.81   32.18    0.00  111.75   35.48   45.21  119.03   41.70    0.00    0.02    0.28    0.00     0.09    0.00    0.01    0.00
    5   16.80    0.40    1.37   48.14    0.00    0.00   98.10   28.65   71.77   52.72    1.29    0.00    0.00    0.00    0.00     0.00    0.00    0.00    0.00
    6    3.00    0.00    0.03   21.84    0.00    0.00   83.57   17.53   93.17   24.09    0.00    0.00    0.00    0.00    0.00     0.00    0.00    0.00    0.00
    7    2.70    0.00    0.00    4.86    0.00    0.00   69.79   16.48  104.55    6.64    0.00    0.00    0.00    0.00    0.00     0.00    0.00    0.00    0.00
    8    9.50    0.00    0.30    0.23    0.00    0.00   63.32   15.64   74.15    1.87    0.00    0.00    0.00    0.00    0.00     0.00    0.00    0.00    0.00
    9   15.70    0.00    1.13    0.01    0.00    0.00   64.85   13.05   45.39    2.10    0.01    0.00    0.01    0.00    0.00     0.00    0.00    0.00    0.00
   10   45.40    1.05    5.55    0.00    0.00    0.00   87.19   15.84   35.50    7.34    2.21    0.00    0.00    0.00    0.00     0.00    0.00    0.00    0.00
   11   56.20    3.60    9.75    0.00    0.64    0.00  108.02   20.58   26.48   13.86   12.93    0.00    0.01    0.01    0.00     0.01    0.00    0.00    0.00
   12  116.10   14.53   33.82    3.59   37.05    0.00  117.83   22.02   23.10   52.42   31.33    0.00    0.09    0.97    0.00     0.07    0.00    0.01    0.00

 1996 1080.20  197.72  279.10  349.91  351.99    0.00  117.83  256.84  593.22  846.13  550.08    0.01    0.41    5.05    0.00    27.69    0.00    3.38    0.00
1
    SWAT May 26   VER 2020/Rev 681                                                  

    General Input/Output section (file.cio):                                        
    5/19/2025 12:00:00 AM ARCGIS-SWAT interface AV                                  
                                                                                    
Annual Summary for Watershed in year   17 of simulation

UNIT                                    PERCO    TILE                           WATER     SED     NO3     NO3     NO3     NO3        N       P       P
TIME     PREC    SURQ    LATQ     GWQ    LATE       Q     SW       ET     PET   YIELD   YIELD    SURQ    LATQ    PERC    CROP  ORGANIC SOLUBLE ORGANIC TILENO3
         (mm)    (mm)    (mm)    (mm)    (mm)    (mm)    (mm)    (mm)    (mm)    (mm)   (t/ha)  ------------------(kg nutrient/ha)-------------------- (kg/ha)
    1  216.50   47.44   60.00   25.56   86.52    0.00  118.57   20.61   23.43  133.71  158.90    0.00    0.13    1.88    0.00    21.74    0.00    2.65    0.00
    2  283.60   88.08   72.69   50.63  105.04    0.00  117.88   18.62   18.96  212.68  247.56    0.00    0.10    1.52    0.00     5.70    0.00    0.70    0.00
    3   50.90    3.14   11.97   70.36   11.56    0.00  109.64   33.83   43.66   87.59    9.87    0.00    0.01    0.14    0.00     0.01    0.00    0.00    0.00
    4   41.90    4.97    4.08   42.44    0.14    0.00  111.27   31.01   46.74   53.50   16.61    0.00    0.00    0.00    0.00     0.02    0.00    0.00    0.00
    5   13.40    0.03    1.02   20.59    0.00    0.00   95.41   28.29   73.68   23.38    0.07    0.00    0.00    0.00    0.00     0.00    0.00    0.00    0.00
    6    4.20    0.00    0.18    5.74    0.00    0.00   83.89   15.50   83.12    7.24    0.00    0.00    0.00    0.00    0.00     0.00    0.00    0.00    0.00
    7    3.20    0.00    0.05    0.14    0.00    0.00   73.61   13.48   93.19    1.22    0.00    0.00    0.00    0.00    0.00     0.00    0.00    0.00    0.00
    8   17.50    0.00    0.85    0.00    0.00    0.00   71.89   18.31   47.64    1.62    0.00    0.00    0.00    0.00    0.00     0.00    0.00    0.00    0.00
    9   36.00    2.19    3.92    0.00    0.00    0.00   83.54   17.87   60.58    6.65   10.12    0.00    0.00    0.00    0.00     0.01    0.00    0.00    0.00
   10   55.80    3.48    6.81    0.00    0.01    0.00  103.62   23.69   42.60   10.69    9.71    0.00    0.00    0.00    0.00     0.01    0.00    0.00    0.00
   11  119.20   23.32   27.85    2.36   26.96    0.00  119.64   24.38   28.94   53.83   69.64    0.00    0.08    0.79    0.00     0.12    0.00    0.01    0.00
   12  213.90   55.23   60.61   19.28   86.54    0.00  119.60   12.32   12.40  135.75  127.38    0.00    0.17    2.23    0.00     0.25    0.00    0.03    0.00

 1997 1056.10  227.88  250.03  237.11  316.77    0.00  119.60  257.92  574.94  727.86  649.85    0.01    0.50    6.56    0.00    27.85    0.00    3.40    0.00
1
    SWAT May 26   VER 2020/Rev 681                                                  

    General Input/Output section (file.cio):                                        
    5/19/2025 12:00:00 AM ARCGIS-SWAT interface AV                                  
                                                                                    
Annual Summary for Watershed in year   18 of simulation

UNIT                                    PERCO    TILE                           WATER     SED     NO3     NO3     NO3     NO3        N       P       P
TIME     PREC    SURQ    LATQ     GWQ    LATE       Q     SW       ET     PET   YIELD   YIELD    SURQ    LATQ    PERC    CROP  ORGANIC SOLUBLE ORGANIC TILENO3
         (mm)    (mm)    (mm)    (mm)    (mm)    (mm)    (mm)    (mm)    (mm)    (mm)   (t/ha)  ------------------(kg nutrient/ha)-------------------- (kg/ha)
    1  292.90   82.12   78.19   54.56  115.66    0.00  119.33   15.70   15.70  216.13  256.20    0.00    0.12    1.93    0.00    25.70    0.00    3.14    0.00
    2  288.40   87.91   71.54   75.05  105.84    0.00  119.08   21.12   22.83  236.22  236.26    0.00    0.07    1.12    0.00     1.54    0.00    0.19    0.00
    3  197.20   35.99   56.86   93.00   71.74    0.00  118.30   37.57   40.49  189.08  103.49    0.00    0.05    0.61    0.00     0.19    0.00    0.02    0.00
    4   72.20   10.85   15.61   76.89   17.36    0.00  110.82   36.51   56.28  106.45   41.07    0.00    0.01    0.14    0.00     0.04    0.00    0.00    0.00
    5    6.70    0.00    1.32   45.13    0.00    0.00   87.54   29.64  100.42   49.41    0.00    0.00    0.00    0.00    0.00     0.00    0.00    0.00    0.00
    6    5.30    0.00    0.25   19.29    0.00    0.00   75.79   16.79   87.88   21.81    0.00    0.00    0.00    0.00    0.00     0.00    0.00    0.00    0.00
    7    2.80    0.00    0.00    3.09    0.00    0.00   65.39   13.20  105.10    4.90    0.00    0.00    0.00    0.00    0.00     0.00    0.00    0.00    0.00
    8    8.70    0.00    0.41    0.23    0.00    0.00   61.57   12.10   71.49    2.00    0.01    0.00    0.01    0.00    0.00     0.00    0.00    0.00    0.00
    9   26.30    1.74    2.29    0.00    0.00    0.00   71.37   11.80   55.15    5.00    6.48    0.03    0.01    0.00    0.00     0.00    0.00    0.00    0.00
   10   66.30    4.71   11.41    0.00    0.20    0.00   97.27   24.68   39.81   16.86   13.32    0.00    0.01    0.00    0.00     0.01    0.00    0.00    0.00
   11   78.60    7.99   17.35    0.41   10.51    0.00  118.91   20.27   24.06   26.29   21.35    0.00    0.03    0.26    0.00     0.03    0.00    0.00    0.00
   12  159.20   21.34   47.93    9.96   72.36    0.00  119.71   13.81   14.78   79.75   54.77    0.00    0.12    1.72    0.00     0.05    0.00    0.01    0.00

 1998 1204.60  252.65  303.16  377.62  393.66    0.00  119.71  253.20  633.99  953.90  732.95    0.04    0.44    5.79    0.00    27.55    0.00    3.36    0.00
1
    SWAT May 26   VER 2020/Rev 681                                                  

    General Input/Output section (file.cio):                                        
    5/19/2025 12:00:00 AM ARCGIS-SWAT interface AV                                  
                                                                                    
Annual Summary for Watershed in year   19 of simulation

UNIT                                    PERCO    TILE                           WATER     SED     NO3     NO3     NO3     NO3        N       P       P
TIME     PREC    SURQ    LATQ     GWQ    LATE       Q     SW       ET     PET   YIELD   YIELD    SURQ    LATQ    PERC    CROP  ORGANIC SOLUBLE ORGANIC TILENO3
         (mm)    (mm)    (mm)    (mm)    (mm)    (mm)    (mm)    (mm)    (mm)    (mm)   (t/ha)  ------------------(kg nutrient/ha)-------------------- (kg/ha)
    1  231.40   57.25   64.28   40.64   93.30    0.00  118.67   17.05   17.61  163.08  147.30    0.00    0.11    1.60    0.00    23.35    0.00    2.85    0.00
    2  430.70  169.07   96.71   66.02  142.51    0.00  119.22   20.63   20.63  333.39  528.02    0.00    0.10    1.48    0.00     4.26    0.00    0.52    0.00
    3  203.20   30.13   60.52  100.26   80.37    0.00  119.09   34.79   34.82  194.08   70.93    0.00    0.04    0.60    0.00     0.09    0.00    0.01    0.00
    4  116.00   12.19   32.15   88.55   37.19    0.00  118.44   37.85   39.66  136.17   37.47    0.00    0.02    0.27    0.00     0.02    0.00    0.00    0.00
    5   47.30    2.07   11.79   63.13   13.72    0.00  102.65   35.97   60.06   80.29    5.11    0.00    0.01    0.11    0.00     0.00    0.00    0.00    0.00
    6    6.40    0.00    0.20   32.26    0.00    0.00   89.63   19.22   73.51   35.17    0.00    0.00    0.00    0.00    0.00     0.00    0.00    0.00    0.00
    7    4.70    0.00    0.02   13.26    0.00    0.00   75.97   18.34   95.69   15.48    0.00    0.00    0.00    0.00    0.00     0.00    0.00    0.00    0.00
    8    6.90    0.00    0.16    0.86    0.00    0.00   66.50   16.21   90.00    2.68    0.00    0.00    0.00    0.00    0.00     0.00    0.00    0.00    0.00
    9   27.70    0.28    2.62    0.14    0.00    0.00   75.79   15.18   40.70    4.25    0.68    0.00    0.01    0.00    0.00     0.00    0.00    0.00    0.00
   10   78.80    6.50   12.94    0.04    0.71    0.00  102.70   31.97   40.69   20.41   14.53    0.00    0.01    0.01    0.00     0.01    0.00    0.00    0.00
   11  126.00   22.52   27.14    0.88   34.65    0.00  119.81   19.81   23.03   51.14   44.22    0.00    0.07    0.78    0.00     0.05    0.00    0.01    0.00
   12  206.00   39.14   65.07   27.36   90.46    0.00  119.76   13.59   14.86  132.57   75.91    0.00    0.13    1.65    0.00     0.09    0.00    0.01    0.00

 1999 1485.10  339.15  373.60  433.41  492.91    0.00  119.76  280.60  551.26 1168.72  924.18    0.01    0.50    6.51    0.00    27.88    0.00    3.40    0.00
1
    SWAT May 26   VER 2020/Rev 681                                                  

    General Input/Output section (file.cio):                                        
    5/19/2025 12:00:00 AM ARCGIS-SWAT interface AV                                  
                                                                                    
Annual Summary for Watershed in year   20 of simulation

UNIT                                    PERCO    TILE                           WATER     SED     NO3     NO3     NO3     NO3        N       P       P
TIME     PREC    SURQ    LATQ     GWQ    LATE       Q     SW       ET     PET   YIELD   YIELD    SURQ    LATQ    PERC    CROP  ORGANIC SOLUBLE ORGANIC TILENO3
         (mm)    (mm)    (mm)    (mm)    (mm)    (mm)    (mm)    (mm)    (mm)    (mm)   (t/ha)  ------------------(kg nutrient/ha)-------------------- (kg/ha)
    1  312.50   85.35   82.20   63.72  125.21    0.00  119.79   15.75   15.75  232.66  210.80    0.00    0.10    1.51    0.00    24.65    0.00    3.01    0.00
    2  332.10  107.67   85.34   81.64  120.41    0.00  119.50   20.87   22.80  277.18  290.93    0.00    0.07    0.95    0.00     2.37    0.00    0.29    0.00
    3  250.70   49.25   70.94  104.94   98.67    0.00  118.92   33.34   33.34  228.58  124.77    0.00    0.04    0.60    0.00     0.19    0.00    0.02    0.00
    4   66.00    1.93   17.86   88.10   15.46    0.00  115.62   37.67   39.92  111.60    3.44    0.00    0.01    0.10    0.00     0.00    0.00    0.00    0.00
    5   31.70    2.71    4.56   53.88    2.41    0.00  100.64   37.17   70.02   64.55   12.14    0.00    0.00    0.02    0.00     0.01    0.00    0.00    0.00
    6    4.80    0.00    0.00   24.61    0.00    0.00   86.24   19.19   86.52   27.29    0.00    0.00    0.00    0.00    0.00     0.00    0.00    0.00    0.00
    7    7.40    0.00    0.23    7.57    0.00    0.00   77.07   16.35   81.46    9.93    0.00    0.00    0.00    0.00    0.00     0.00    0.00    0.00    0.00
    8   18.30    0.00    1.23    0.51    0.00    0.00   74.21   19.80   63.94    3.35    0.00    0.00    0.00    0.00    0.00     0.00    0.00    0.00    0.00
    9   29.00    0.56    3.05    0.00    0.00    0.00   80.74   18.81   57.92    4.77    2.65    0.00    0.00    0.00    0.00     0.00    0.00    0.00    0.00
   10   89.00    7.55   17.09    0.24    3.70    0.00  115.17   25.93   34.26   25.76   21.51    0.00    0.02    0.07    0.00     0.01    0.00    0.00    0.00
   11   82.30   16.13   14.58    1.16   21.26    0.00  118.82   22.07   44.02   32.32   32.68    0.00    0.03    0.49    0.00     0.03    0.00    0.00    0.00
   12  244.40   56.22   67.87   20.74   99.64    0.00  120.03   17.87   18.27  145.39  125.70    0.00    0.15    1.94    0.00     0.15    0.00    0.02    0.00

 2000 1468.20  327.38  364.96  447.11  486.76    0.00  120.03  284.83  568.21 1163.37  824.65    0.01    0.43    5.67    0.00    27.42    0.00    3.35    0.00
1
    SWAT May 26   VER 2020/Rev 681                                                  

    General Input/Output section (file.cio):                                        
    5/19/2025 12:00:00 AM ARCGIS-SWAT interface AV                                  
                                                                                    
Annual Summary for Watershed in year   21 of simulation

UNIT                                    PERCO    TILE                           WATER     SED     NO3     NO3     NO3     NO3        N       P       P
TIME     PREC    SURQ    LATQ     GWQ    LATE       Q     SW       ET     PET   YIELD   YIELD    SURQ    LATQ    PERC    CROP  ORGANIC SOLUBLE ORGANIC TILENO3
         (mm)    (mm)    (mm)    (mm)    (mm)    (mm)    (mm)    (mm)    (mm)    (mm)   (t/ha)  ------------------(kg nutrient/ha)-------------------- (kg/ha)
    1  318.40   79.28   95.00   63.31  133.40    0.00  119.67   14.62   14.62  239.65  213.39    0.00    0.11    1.61    0.00    24.02    0.00    2.93    0.00
    2  246.50   71.00   63.97   84.00   92.54    0.00  119.21   18.97   19.14  221.24  214.57    0.00    0.05    0.76    0.00     2.43    0.00    0.30    0.00
    3  294.20   65.21   83.15   99.42  118.18    0.00  116.62   30.73   31.61  251.04  179.55    0.00    0.06    0.77    0.00     0.42    0.00    0.05    0.00
    4   54.10    9.29   12.90   90.27   11.07    0.00  108.71   31.77   46.29  116.15   35.11    0.00    0.01    0.07    0.00     0.05    0.00    0.01    0.00
    5   21.20    0.14    2.09   54.28    0.00    0.00   98.29   29.39   77.84   59.90    0.38    0.00    0.00    0.00    0.00     0.00    0.00    0.00    0.00
    6    5.30    0.00    0.30   23.98    0.00    0.00   85.31   18.09   80.90   26.93    0.00    0.00    0.00    0.00    0.00     0.00    0.00    0.00    0.00
    7    7.80    0.01    0.15    6.65    0.00    0.00   77.11   15.63   82.54    8.92    0.01    0.00    0.00    0.00    0.00     0.00    0.00    0.00    0.00
    8    6.10    0.00    0.24    0.17    0.00    0.00   66.82   16.36   76.63    1.99    0.00    0.00    0.00    0.00    0.00     0.00    0.00    0.00    0.00
    9   28.80    0.02    2.66    0.03    0.00    0.00   74.02   18.82   42.83    3.85    0.04    0.00    0.00    0.00    0.00     0.00    0.00    0.00    0.00
   10   64.70    2.75    7.54    0.00    0.00    0.00  102.71   23.90   34.07   11.13    8.82    0.00    0.00    0.00    0.00     0.00    0.00    0.00    0.00
   11  198.50   46.63   47.51    2.17   59.04    0.00  119.71   25.45   28.05   96.77  148.90    0.00    0.12    1.28    0.00     0.19    0.00    0.02    0.00
   12   91.40   10.39   29.51   27.59   35.61    0.00  117.00   21.63   24.07   68.70   29.01    0.00    0.06    0.68    0.00     0.03    0.00    0.00    0.00

 2001 1337.00  284.74  345.02  451.87  449.85    0.00  117.00  265.34  558.57 1106.26  829.79    0.00    0.41    5.16    0.00    27.15    0.00    3.31    0.00
1
    SWAT May 26   VER 2020/Rev 681                                                  

    General Input/Output section (file.cio):                                        
    5/19/2025 12:00:00 AM ARCGIS-SWAT interface AV                                  
                                                                                    
Annual Summary for Watershed in year   22 of simulation

UNIT                                    PERCO    TILE                           WATER     SED     NO3     NO3     NO3     NO3        N       P       P
TIME     PREC    SURQ    LATQ     GWQ    LATE       Q     SW       ET     PET   YIELD   YIELD    SURQ    LATQ    PERC    CROP  ORGANIC SOLUBLE ORGANIC TILENO3
         (mm)    (mm)    (mm)    (mm)    (mm)    (mm)    (mm)    (mm)    (mm)    (mm)   (t/ha)  ------------------(kg nutrient/ha)-------------------- (kg/ha)
    1  157.70   26.68   45.24   36.12   64.12    0.00  119.49   18.34   20.71  109.23   76.71    0.00    0.08    1.10    0.00    14.27    0.00    1.74    0.00
    2  270.30   74.40   70.85   50.31  102.79    0.00  119.82   21.14   21.16  197.16  223.01    0.00    0.09    1.29    0.00    11.01    0.00    1.34    0.00
    3  227.70   43.83   62.73   77.06   86.88    0.00  119.28   35.20   35.30  186.02  107.64    0.00    0.06    0.80    0.00     0.69    0.00    0.08    0.00
    4   91.60    8.76   26.64   74.70   30.37    0.00  110.97   37.06   45.57  112.89   29.68    0.00    0.02    0.26    0.00     0.06    0.00    0.01    0.00
    5   25.60    0.24    2.44   50.43    0.00    0.00  106.51   27.26   53.59   55.85    0.65    0.00    0.00    0.00    0.00     0.00    0.00    0.00    0.00
    6    6.50    0.01    0.46   23.41    0.00    0.00   90.20   22.49   80.03   26.08    0.03    0.00    0.00    0.00    0.00     0.00    0.00    0.00    0.00
    7    9.70    0.00    0.26    7.14    0.00    0.00   79.56   20.07   68.62    9.17    0.00    0.00    0.00    0.00    0.00     0.00    0.00    0.00    0.00
    8    7.30    0.00    0.11    0.55    0.00    0.00   73.58   13.14   56.17    2.00    0.00    0.00    0.00    0.00    0.00     0.00    0.00    0.00    0.00
    9   34.50    0.67    3.50    0.04    0.00    0.00   84.68   18.95   47.23    5.16    2.88    0.00    0.00    0.00    0.00     0.00    0.00    0.00    0.00
   10   75.50    3.85   11.68    0.01    1.28    0.00  115.27   26.20   33.06   16.26   11.34    0.00    0.01    0.03    0.00     0.01    0.00    0.00    0.00
   11  142.50   21.22   43.44    6.04   57.22    0.00  119.46   17.53   17.61   71.32   57.27    0.00    0.12    1.29    0.00     0.17    0.00    0.02    0.00
   12  166.10   27.31   47.53   28.82   70.67    0.00  119.62   17.81   19.86  104.54   66.78    0.00    0.09    1.34    0.01     0.17    0.00    0.02    0.00

 2002 1215.00  206.98  314.89  354.63  413.32    0.00  119.62  275.19  498.91  895.68  575.99    0.01    0.47    6.11    0.01    26.39    0.00    3.22    0.00
1
    SWAT May 26   VER 2020/Rev 681                                                  

    General Input/Output section (file.cio):                                        
    5/19/2025 12:00:00 AM ARCGIS-SWAT interface AV                                  
                                                                                    
Annual Summary for Watershed in year   23 of simulation

UNIT                                    PERCO    TILE                           WATER     SED     NO3     NO3     NO3     NO3        N       P       P
TIME     PREC    SURQ    LATQ     GWQ    LATE       Q     SW       ET     PET   YIELD   YIELD    SURQ    LATQ    PERC    CROP  ORGANIC SOLUBLE ORGANIC TILENO3
         (mm)    (mm)    (mm)    (mm)    (mm)    (mm)    (mm)    (mm)    (mm)    (mm)   (t/ha)  ------------------(kg nutrient/ha)-------------------- (kg/ha)
    1  234.30   52.10   68.82   54.71   98.87    0.00  120.04   14.38   14.50  177.17  163.37    0.00    0.09    1.36    0.00    21.42    0.00    2.61    0.00
    2  236.40   52.58   65.09   68.73   94.71    0.00  118.86   23.92   24.24  188.36  145.51    0.00    0.06    0.93    0.00     3.33    0.00    0.41    0.00
    3  241.70   55.65   65.84   90.85   89.63    0.00  119.58   31.80   31.80  215.37  138.66    0.00    0.05    0.67    0.00     1.32    0.00    0.16    0.00
    4   80.90    8.36   23.39   78.58   26.83    0.00  108.92   35.76   45.27  113.55   17.30    0.00    0.02    0.20    0.00     0.08    0.00    0.01    0.00
    5   19.00    0.06    1.19   49.93    0.00    0.00   97.04   29.62   68.62   54.22    0.21    0.00    0.00    0.00    0.00     0.00    0.00    0.00    0.00
    6    4.70    0.00    0.02   22.62    0.00    0.00   82.78   18.96   79.96   25.03    0.00    0.00    0.00    0.00    0.00     0.00    0.00    0.00    0.00
    7    4.70    0.00    0.01    6.08    0.00    0.00   71.52   15.94   86.64    7.99    0.00    0.00    0.00    0.00    0.00     0.00    0.00    0.00    0.00
    8    7.30    0.00    0.22    0.34    0.00    0.00   65.06   13.55   70.01    1.99    0.00    0.00    0.00    0.00    0.00     0.00    0.00    0.00    0.00
    9   14.80    0.00    0.89    0.02    0.00    0.00   66.45   12.31   43.75    1.94    0.00    0.00    0.01    0.00    0.00     0.00    0.00    0.00    0.00
   10   68.70    9.47    8.72    0.00    0.00    0.00   96.88   19.34   43.11   18.95   23.62    0.01    0.01    0.00    0.00     0.07    0.00    0.01    0.00
   11   48.70    1.69    8.28    0.00    1.23    0.00  110.97   22.46   31.08   10.58    3.43    0.00    0.01    0.03    0.00     0.00    0.00    0.00    0.00
   12  266.20   55.73   77.10   15.14  107.61    0.00  119.38   16.37   16.43  148.56  123.86    0.00    0.18    2.27    0.00     0.43    0.00    0.05    0.00

 2003 1227.40  235.65  319.56  387.00  418.88    0.00  119.38  254.41  555.41  963.70  615.95    0.01    0.43    5.46    0.00    26.65    0.00    3.25    0.00
1
    SWAT May 26   VER 2020/Rev 681                                                  

    General Input/Output section (file.cio):                                        
    5/19/2025 12:00:00 AM ARCGIS-SWAT interface AV                                  
                                                                                    
Annual Summary for Watershed in year   24 of simulation

UNIT                                    PERCO    TILE                           WATER     SED     NO3     NO3     NO3     NO3        N       P       P
TIME     PREC    SURQ    LATQ     GWQ    LATE       Q     SW       ET     PET   YIELD   YIELD    SURQ    LATQ    PERC    CROP  ORGANIC SOLUBLE ORGANIC TILENO3
         (mm)    (mm)    (mm)    (mm)    (mm)    (mm)    (mm)    (mm)    (mm)    (mm)   (t/ha)  ------------------(kg nutrient/ha)-------------------- (kg/ha)
    1   87.20   10.32   26.75   45.66   32.93    0.00  119.47   18.88   22.84   84.06   23.60    0.00    0.04    0.55    0.00     8.01    0.00    0.98    0.00
    2  292.40   87.85   75.54   52.47  107.52    0.00  117.42   24.28   25.27  217.46  236.22    0.00    0.09    1.40    0.00    16.88    0.00    2.06    0.00
    3  137.20   18.69   34.89   67.54   45.77    0.00  118.24   36.46   39.42  123.37   62.35    0.00    0.04    0.49    0.00     0.39    0.00    0.05    0.00
    4   59.70    5.17   14.62   54.78   16.79    0.00  108.73   33.29   49.51   76.92   22.61    0.00    0.01    0.18    0.00     0.08    0.00    0.01    0.00
    5   17.60    0.14    1.69   33.52    0.00    0.00   94.41   30.33   83.08   37.54    0.27    0.00    0.00    0.00    0.00     0.00    0.00    0.00    0.00
    6   11.60    0.02    0.61   14.28    0.00    0.00   85.18   20.13   76.22   16.62    0.05    0.00    0.00    0.00    0.00     0.00    0.00    0.00    0.00
    7    5.20    0.00    0.16    1.63    0.00    0.00   72.56   17.78   88.88    3.15    0.00    0.00    0.00    0.00    0.00     0.00    0.00    0.00    0.00
    8    9.60    0.00    0.06    0.04    0.00    0.00   64.95   17.13   73.42    1.11    0.00    0.00    0.00    0.00    0.00     0.00    0.00    0.00    0.00
    9   34.90    0.35    3.78    0.00    0.00    0.00   78.11   17.45   40.13    4.87    0.75    0.00    0.01    0.00    0.00     0.00    0.00    0.00    0.00
   10   85.00    5.62   14.43    0.01    1.95    0.00  116.89   22.37   32.92   20.60   15.45    0.00    0.02    0.04    0.00     0.04    0.00    0.01    0.00
   11  121.20   25.98   34.58   10.18   44.26    0.00  114.05   21.15   26.02   71.34   62.99    0.00    0.09    1.09    0.00     0.45    0.00    0.05    0.00
   12  238.90   53.98   66.15   28.94   97.47    0.00  119.72   13.25   13.45  149.93  159.82    0.00    0.13    1.96    0.00     0.54    0.00    0.07    0.00

 2004 1100.50  208.13  273.26  309.05  346.68    0.00  119.72  272.50  571.13  806.94  584.10    0.01    0.44    5.71    0.00    26.38    0.00    3.22    0.00
1
    SWAT May 26   VER 2020/Rev 681                                                  

    General Input/Output section (file.cio):                                        
    5/19/2025 12:00:00 AM ARCGIS-SWAT interface AV                                  
                                                                                    
Annual Summary for Watershed in year   25 of simulation

UNIT                                    PERCO    TILE                           WATER     SED     NO3     NO3     NO3     NO3        N       P       P
TIME     PREC    SURQ    LATQ     GWQ    LATE       Q     SW       ET     PET   YIELD   YIELD    SURQ    LATQ    PERC    CROP  ORGANIC SOLUBLE ORGANIC TILENO3
         (mm)    (mm)    (mm)    (mm)    (mm)    (mm)    (mm)    (mm)    (mm)    (mm)   (t/ha)  ------------------(kg nutrient/ha)-------------------- (kg/ha)
    1  173.20   32.56   49.33   58.36   70.92    0.00  118.66   20.22   24.24  141.81  112.73    0.00    0.07    1.02    0.00    19.10    0.00    2.33    0.00
    2  171.30   37.30   48.95   58.77   64.99    0.00  119.10   22.15   23.30  146.93  122.43    0.00    0.06    0.77    0.00     4.25    0.00    0.52    0.00
    3  189.60   29.86   51.26   66.49   74.06    0.00  119.51   31.55   32.08  149.91   87.46    0.00    0.05    0.76    0.00     1.10    0.00    0.13    0.00
    4   63.20    5.21   15.20   59.02   11.90    0.00  113.34   40.16   49.72   82.13   16.91    0.00    0.01    0.11    0.00     0.13    0.00    0.02    0.00
    5   13.50    0.19    1.78   36.31    0.00    0.00   95.34   30.07   83.47   40.67    0.47    0.00    0.00    0.00    0.00     0.00    0.00    0.00    0.00
    6    4.40    0.00    0.13   15.54    0.00    0.00   81.43   18.19   87.79   17.53    0.00    0.00    0.00    0.00    0.00     0.00    0.00    0.00    0.00
    7    3.30    0.00    0.09    1.64    0.00    0.00   68.38   16.25  106.20    3.21    0.00    0.00    0.00    0.00    0.00     0.00    0.00    0.00    0.00
    8    5.90    0.00    0.06    0.04    0.00    0.00   62.68   11.53   82.92    1.21    0.00    0.00    0.00    0.00    0.00     0.00    0.00    0.00    0.00
    9   16.80    0.00    1.39    0.00    0.00    0.00   62.64   15.40   58.05    2.19    0.00    0.00    0.01    0.00    0.00     0.00    0.00    0.00    0.00
   10   35.80    0.31    4.52    0.00    0.00    0.00   76.81   16.79   37.13    5.44    0.97    0.00    0.00    0.00    0.00     0.00    0.00    0.00    0.00
   11   46.00    1.78    6.23    0.00    0.00    0.00   90.96   23.65   33.93    8.44    3.66    0.00    0.00    0.00    0.00     0.01    0.00    0.00    0.00
   12  200.30   47.23   48.69    1.76   57.18    0.00  119.84   14.80   15.83   98.01  109.60    0.00    0.14    1.53    0.00     0.96    0.00    0.12    0.00

 2005  923.30  154.43  227.63  297.93  279.05    0.00  119.84  260.75  634.66  697.46  454.24    0.00    0.34    4.19    0.00    25.54    0.00    3.11    0.00
1
    SWAT May 26   VER 2020/Rev 681                                                  

    General Input/Output section (file.cio):                                        
    5/19/2025 12:00:00 AM ARCGIS-SWAT interface AV                                  
                                                                                    
Annual Summary for Watershed in year   26 of simulation

UNIT                                    PERCO    TILE                           WATER     SED     NO3     NO3     NO3     NO3        N       P       P
TIME     PREC    SURQ    LATQ     GWQ    LATE       Q     SW       ET     PET   YIELD   YIELD    SURQ    LATQ    PERC    CROP  ORGANIC SOLUBLE ORGANIC TILENO3
         (mm)    (mm)    (mm)    (mm)    (mm)    (mm)    (mm)    (mm)    (mm)    (mm)   (t/ha)  ------------------(kg nutrient/ha)-------------------- (kg/ha)
    1  240.20   69.74   62.78   32.10   89.76    0.00  119.63   18.37   18.50  165.17  280.61    0.00    0.12    1.79    0.00    25.04    0.00    3.05    0.00
    2  249.30   63.77   66.89   60.00   94.40    0.00  119.79   24.55   26.06  192.31  198.80    0.00    0.08    1.26    0.00     1.22    0.00    0.15    0.00
    3  254.10   49.37   71.72   80.62  102.20    0.00  119.49   30.48   31.44  204.11  147.34    0.00    0.07    1.00    0.00     0.28    0.00    0.03    0.00
    4  110.30   11.35   35.06   83.37   42.35    0.00  111.49   33.22   40.34  132.66   27.28    0.00    0.03    0.35    0.00     0.03    0.00    0.00    0.00
    5   10.10    0.04    0.75   58.65    0.00    0.00   91.99   28.87   92.08   62.37    0.12    0.00    0.00    0.00    0.00     0.00    0.00    0.00    0.00
    6    9.40    0.00    0.54   27.42    0.00    0.00   83.28   17.57   81.19   30.33    0.00    0.00    0.00    0.00    0.00     0.00    0.00    0.00    0.00
    7    2.90    0.00    0.00    9.12    0.00    0.00   71.81   14.37   84.72   11.04    0.00    0.00    0.00    0.00    0.00     0.00    0.00    0.00    0.00
    8   13.30    0.01    0.75    0.67    0.00    0.00   67.94   16.42   71.35    2.88    0.02    0.00    0.00    0.00    0.00     0.00    0.00    0.00    0.00
    9   25.90    0.64    2.52    0.02    0.00    0.00   72.55   18.08   53.16    4.23    2.08    0.00    0.00    0.00    0.00     0.00    0.00    0.00    0.00
   10   61.90    2.28    8.17    0.00    0.09    0.00  103.61   18.55   32.94   11.24    6.10    0.00    0.00    0.00    0.00     0.00    0.00    0.00    0.00
   11  136.50   16.38   41.12    5.22   48.41    0.00  119.22   14.68   14.82   63.38   37.42    0.00    0.10    1.10    0.00     0.04    0.00    0.01    0.00
   12  224.30   56.64   60.61   27.92   87.81    0.00  117.05   20.65   21.44  146.00  167.30    0.00    0.11    1.61    0.00     0.24    0.00    0.03    0.00

 2006 1338.20  270.21  350.93  385.10  465.02    0.00  117.05  255.78  568.03 1025.71  867.07    0.00    0.52    7.11    0.00    26.85    0.00    3.27    0.00
1
    SWAT May 26   VER 2020/Rev 681                                                  

    General Input/Output section (file.cio):                                        
    5/19/2025 12:00:00 AM ARCGIS-SWAT interface AV                                  
                                                                                    
Annual Summary for Watershed in year   27 of simulation

UNIT                                    PERCO    TILE                           WATER     SED     NO3     NO3     NO3     NO3        N       P       P
TIME     PREC    SURQ    LATQ     GWQ    LATE       Q     SW       ET     PET   YIELD   YIELD    SURQ    LATQ    PERC    CROP  ORGANIC SOLUBLE ORGANIC TILENO3
         (mm)    (mm)    (mm)    (mm)    (mm)    (mm)    (mm)    (mm)    (mm)    (mm)   (t/ha)  ------------------(kg nutrient/ha)-------------------- (kg/ha)
    1  255.40   62.36   70.62   59.96  101.50    0.00  119.71   18.03   18.03  194.66  146.04    0.00    0.08    1.28    0.00    21.43    0.00    2.61    0.00
    2  230.30   63.80   59.29   74.36   83.18    0.00  119.33   24.88   25.48  199.64  162.92    0.00    0.05    0.76    0.00     3.95    0.00    0.48    0.00
    3  270.90   62.53   73.01   88.13  107.51    0.00  118.17   26.66   26.69  226.48  186.16    0.00    0.06    0.80    0.00     0.50    0.00    0.06    0.00
    4   94.10   10.18   27.56   82.12   28.31    0.00  115.68   35.35   38.59  123.34   23.92    0.00    0.02    0.19    0.00     0.04    0.00    0.00    0.00
    5   22.40    0.07    1.86   53.49    0.00    0.00  105.23   30.90   51.57   58.58    0.15    0.00    0.00    0.00    0.00     0.00    0.00    0.00    0.00
    6    8.30    0.00    0.53   24.42    0.00    0.00   94.08   19.12   49.75   27.46    0.00    0.00    0.00    0.00    0.00     0.00    0.00    0.00    0.00
    7    4.40    0.00    0.09    8.16    0.00    0.00   79.18   19.21   90.85   10.25    0.00    0.00    0.00    0.00    0.00     0.00    0.00    0.00    0.00
    8    6.10    0.00    0.25    0.34    0.00    0.00   70.77   14.19   85.48    2.10    0.01    0.00    0.00    0.00    0.00     0.00    0.00    0.00    0.00
    9   15.00    0.36    1.52    0.01    0.00    0.00   69.81   14.14   67.91    2.98    1.22    0.00    0.01    0.00    0.00     0.00    0.00    0.00    0.00
   10   79.60    4.43   11.20    0.00    0.55    0.00  108.31   23.17   42.96   16.44   12.87    0.00    0.01    0.01    0.00     0.01    0.00    0.00    0.00
   11   72.00    6.88   17.55    0.38   11.61    0.00  119.65   25.80   33.24   25.43   14.11    0.00    0.04    0.27    0.00     0.02    0.00    0.00    0.00
   12  123.80   14.66   35.56    6.66   50.63    0.00  119.76   20.98   27.66   57.45   36.84    0.00    0.09    1.18    0.00     0.03    0.00    0.00    0.00

 2007 1182.30  225.27  299.03  398.03  383.28    0.00  119.76  272.41  558.21  944.80  584.25    0.01    0.36    4.49    0.00    25.98    0.00    3.17    0.00
1
    SWAT May 26   VER 2020/Rev 681                                                  

    General Input/Output section (file.cio):                                        
[...]
    5   22.60    1.44    3.94   48.06    1.43    0.00   99.75   33.52   68.21   56.19    2.27    0.00    0.00    0.01    0.00     0.02    0.00    0.00    0.00
    6    5.00    0.00    0.07   22.70    0.00    0.00   85.63   19.04   81.35   24.96    0.00    0.00    0.00    0.00    0.00     0.00    0.00    0.00    0.00
    7    7.90    0.00    0.20    6.76    0.00    0.00   75.62   17.72   76.11    8.72    0.00    0.00    0.00    0.00    0.00     0.00    0.00    0.00    0.00
    8   15.40    0.00    0.79    0.31    0.00    0.00   73.12   16.79   69.98    2.43    0.01    0.00    0.00    0.00    0.00     0.00    0.00    0.00    0.00
    9   32.70    0.10    3.28    0.02    0.00    0.00   83.30   18.88   45.02    4.36    0.21    0.00    0.00    0.00    0.00     0.00    0.00    0.00    0.00
   10   55.30    1.48    8.20    0.00    0.06    0.00  104.18   24.52   30.19   10.42    3.94    0.00    0.00    0.00    0.00     0.00    0.00    0.00    0.00
   11   90.70   13.79   23.32    2.86   20.85    0.00  113.66   23.80   31.07   40.55   28.58    0.00    0.06    0.49    0.00     0.47    0.00    0.06    0.00
   12  170.00   22.20   49.74   17.16   74.32    0.00  119.47   14.31   14.40   89.76   47.18    0.00    0.12    1.61    0.00     0.45    0.00    0.06    0.00

 2014 1144.80  157.52  307.67  351.52  401.70    0.00  119.47  275.61  528.64  835.64  354.56    0.00    0.44    5.95    0.00    24.06    0.00    2.93    0.00
1
    SWAT May 26   VER 2020/Rev 681                                                  

    General Input/Output section (file.cio):                                        
    5/19/2025 12:00:00 AM ARCGIS-SWAT interface AV                                  
                                                                                    
Annual Summary for Watershed in year   35 of simulation

UNIT                                    PERCO    TILE                           WATER     SED     NO3     NO3     NO3     NO3        N       P       P
TIME     PREC    SURQ    LATQ     GWQ    LATE       Q     SW       ET     PET   YIELD   YIELD    SURQ    LATQ    PERC    CROP  ORGANIC SOLUBLE ORGANIC TILENO3
         (mm)    (mm)    (mm)    (mm)    (mm)    (mm)    (mm)    (mm)    (mm)    (mm)   (t/ha)  ------------------(kg nutrient/ha)-------------------- (kg/ha)
    1  189.00   31.69   57.36   43.82   81.49    0.00  119.16   18.81   20.07  134.08   74.97    0.00    0.09    1.33    0.00    14.64    0.00    1.78    0.00
    2  217.70   51.47   59.58   56.84   84.63    0.00  119.49   21.62   22.72  169.41  151.86    0.00    0.07    1.01    0.00     8.61    0.00    1.05    0.00
    3  181.70   30.94   52.97   75.84   68.63    0.00  117.07   34.61   35.89  162.31   99.32    0.00    0.05    0.65    0.00     1.34    0.00    0.16    0.00
    4   71.50    5.87   13.70   62.58   13.51    0.00  116.29   39.25   41.65   84.72   18.22    0.00    0.01    0.13    0.00     0.11    0.00    0.01    0.00
    5   21.90    0.31    2.58   37.62    0.01    0.00   99.69   36.24   77.51   42.93    1.32    0.00    0.00    0.00    0.00     0.00    0.00    0.00    0.00
    6    8.20    0.03    0.51   16.39    0.00    0.00   86.42   21.06   79.64   18.82    0.16    0.00    0.00    0.00    0.00     0.00    0.00    0.00    0.00
    7    4.00    0.00    0.00    2.57    0.00    0.00   73.42   17.00   89.87    4.07    0.00    0.00    0.00    0.00    0.00     0.00    0.00    0.00    0.00
    8   17.20    0.38    1.55    0.10    0.00    0.00   72.17   16.52   66.49    3.15    1.77    0.00    0.00    0.00    0.00     0.00    0.00    0.00    0.00
    9   25.60    0.68    2.74    0.00    0.00    0.00   78.10   16.23   43.33    4.24    1.74    0.00    0.00    0.00    0.00     0.00    0.00    0.00    0.00
   10   46.20    1.91    5.25    0.00    0.00    0.00   95.82   20.58   41.05    7.77    3.19    0.00    0.00    0.00    0.00     0.00    0.00    0.00    0.00
   11   80.30    6.08   19.82    0.34   12.86    0.00  119.78   16.86   20.65   26.70   16.41    0.00    0.05    0.33    0.00     0.06    0.00    0.01    0.00
   12  124.60   13.59   39.90   10.73   56.70    0.00  119.93   14.07   14.19   64.74   29.84    0.00    0.11    1.41    0.00     0.16    0.00    0.02    0.00

 2015  987.90  142.94  255.95  306.82  317.83    0.00  119.93  272.86  553.05  722.94  398.80    0.01    0.38    4.87    0.00    24.92    0.00    3.03    0.00
1
    SWAT May 26   VER 2020/Rev 681                                                  

    General Input/Output section (file.cio):                                        
    5/19/2025 12:00:00 AM ARCGIS-SWAT interface AV                                  
                                                                                    
Annual Summary for Watershed in year   36 of simulation

UNIT                                    PERCO    TILE                           WATER     SED     NO3     NO3     NO3     NO3        N       P       P
TIME     PREC    SURQ    LATQ     GWQ    LATE       Q     SW       ET     PET   YIELD   YIELD    SURQ    LATQ    PERC    CROP  ORGANIC SOLUBLE ORGANIC TILENO3
         (mm)    (mm)    (mm)    (mm)    (mm)    (mm)    (mm)    (mm)    (mm)    (mm)   (t/ha)  ------------------(kg nutrient/ha)-------------------- (kg/ha)
    1   95.00   12.54   25.95   28.69   38.08    0.00  119.81   16.53   18.76   68.02   38.38    0.00    0.06    0.83    0.00     8.17    0.00    0.99    0.00
    2  236.80   49.88   65.70   39.66   93.85    0.00  119.45   27.27   27.28  156.32  146.78    0.00    0.11    1.60    0.00    12.34    0.00    1.50    0.00
    3  154.00   24.83   42.61   62.30   53.44    0.00  118.00   37.04   39.38  131.66   71.93    0.00    0.05    0.69    0.00     1.68    0.00    0.20    0.00
    4   59.30    3.14   14.59   53.62   13.94    0.00  107.93   39.34   53.45   73.43   13.03    0.00    0.01    0.18    0.00     0.09    0.00    0.01    0.00
    5   12.40    0.01    0.75   33.01    0.00    0.00   92.99   26.50   79.28   35.74    0.03    0.00    0.00    0.00    0.00     0.00    0.00    0.00    0.00
    6    6.40    0.00    0.21   14.00    0.00    0.00   78.99   20.26   92.37   15.76    0.00    0.00    0.00    0.00    0.00     0.00    0.00    0.00    0.00
    7    4.60    0.00    0.31    1.30    0.00    0.00   67.06   16.25  112.45    2.85    0.00    0.00    0.00    0.00    0.00     0.00    0.00    0.00    0.00
    8    6.00    0.00    0.07    0.02    0.00    0.00   62.36   10.59   80.87    1.02    0.00    0.00    0.00    0.00    0.00     0.00    0.00    0.00    0.00
    9   30.70    0.83    3.71    0.00    0.00    0.00   75.34   13.12   60.97    5.21    2.67    0.01    0.02    0.00    0.00     0.00    0.00    0.00    0.00
   10   35.60    0.68    4.28    0.00    0.00    0.00   83.99   21.93   41.19    5.47    2.39    0.00    0.00    0.00    0.00     0.00    0.00    0.00    0.00
   11   41.20    2.57    5.98    0.00    0.00    0.00   94.28   21.49   42.61    8.90    9.99    0.00    0.01    0.00    0.00     0.02    0.00    0.00    0.00
   12  151.60   15.67   41.63    1.81   49.91    0.00  119.94   14.45   14.55   59.30   28.90    0.00    0.11    1.46    0.00     0.39    0.00    0.05    0.00

 2016  833.60  110.15  205.80  234.42  249.23    0.00  119.94  264.77  663.15  563.68  314.10    0.02    0.37    4.77    0.00    22.69    0.00    2.76    0.00
1
    SWAT May 26   VER 2020/Rev 681                                                  

    General Input/Output section (file.cio):                                        
    5/19/2025 12:00:00 AM ARCGIS-SWAT interface AV                                  
                                                                                    
    FINAL VALUES

1
    SWAT May 26   VER 2020/Rev 681                                                  

    General Input/Output section (file.cio):                                        
    5/19/2025 12:00:00 AM ARCGIS-SWAT interface AV                                  
                                                                                    
                                            Average Plant Values (kg/ha)

  HRU       1 SUB   1 PJNL  Yld =     0.0 BIOM =      2.0
  HRU       2 SUB   1 PJNL  Yld =     0.0 BIOM =      2.0
  HRU       3 SUB   1 WETN  Yld =     0.0 BIOM =      0.0
  HRU       4 SUB   1 BARR  Yld =     0.0 BIOM =      0.0
  HRU       5 SUB   1 BARR  Yld =     0.0 BIOM =      0.0
  HRU       6 SUB   2 WETN  Yld =     0.0 BIOM =      0.0
  HRU       7 SUB   2 PJNL  Yld =     0.0 BIOM =      2.0
  HRU       8 SUB   2 PJNL  Yld =     0.0 BIOM =      2.0
  HRU       9 SUB   2 BARR  Yld =     0.0 BIOM =      0.0
  HRU      10 SUB   2 BARR  Yld =     0.0 BIOM =      0.0
  HRU      11 SUB   3 PJNL  Yld =     0.0 BIOM =      2.0
  HRU      12 SUB   3 PJNL  Yld =     0.0 BIOM =      2.0
  HRU      13 SUB   3 BARR  Yld =     0.0 BIOM =      0.0
  HRU      14 SUB   3 BARR  Yld =     0.0 BIOM =      0.0
  HRU      15 SUB   3 WETN  Yld =     0.0 BIOM =      0.0
  HRU      16 SUB   3 ES10  Yld =     0.0 BIOM =      0.0
  HRU      17 SUB   3 ES9   Yld =     0.0 BIOM =      0.0
  HRU      18 SUB   3 ES9   Yld =     0.0 BIOM =      0.0
  HRU      19 SUB   3 ES11  Yld =     0.0 BIOM =      0.0
  HRU      20 SUB   3 ES12  Yld =     0.0 BIOM =      0.0
  HRU      21 SUB   3 ES13  Yld =     0.0 BIOM =      0.0

    HRU STATISTICS

                AVE ANNUAL VALUES

   HRU  SUB  SOIL       AREAkm2    CN     AWCmm   USLE_LS  IRRmm  AUTONkh AUTOPkh  MIXEF PRECmm SURQGENmm   GWQmm    ETmm   SEDth  NO3kgh  ORGNkgh BIOMth   YLDth  SURQmm
      1   1   I-Bh-Tv-   .138E+01   79.00  120.00    7.86    0.00    0.00    0.00    0.20 1132.97  122.51  712.80  265.81  432.99    0.59   33.15    0.00    0.00  122.51
      2   1   I-Bh-Tv-   .336E-01   79.00  120.00    0.07    0.00    0.00    0.00    0.20 1132.97  124.65  686.26  270.58    0.55    0.00    6.22    0.00    0.00  124.57
      3   1   I-Bh-Tv-   .717E-01   79.00  120.00    0.07    0.00    0.00    0.00    0.20 1132.97  124.85  690.91  265.35    0.91    0.00    9.11    0.00    0.00  124.80
      4   1   I-Bh-Tv-   .230E+00   91.00  120.00    9.50    0.00    0.00    0.00    0.20 1132.97  397.53  456.47  255.57 1336.19    0.67   33.44    0.00    0.00  397.53
      5   1   I-Bh-Tv-   .250E-02   91.00  120.00    0.07    0.00    0.00    0.00    0.20 1132.97  400.06  433.83  261.67    1.54    0.02   13.39    0.00    0.00  399.81
      6   2   I-Bh-Tv-   .225E+00   79.00  120.00    0.07    0.00    0.00    0.00    0.20 1132.97  124.85  690.51  265.75    1.04    0.00   10.04    0.00    0.00  124.80
      7   2   I-Bh-Tv-   .909E+00   79.00  120.00    4.45    0.00    0.00    0.00    0.20 1132.97  122.74  706.55  267.55  234.63    0.44   32.78    0.00    0.00  122.74
      8   2   I-Bh-Tv-   .272E-01   79.00  120.00    0.07    0.00    0.00    0.00    0.20 1132.97  124.64  685.83  271.02    0.53    0.00    6.09    0.00    0.00  124.56
      9   2   I-Bh-Tv-   .106E+01   91.00  120.00    6.50    0.00    0.00    0.00    0.20 1132.97  397.89  452.47  257.15 1082.77    0.55   33.44    0.00    0.00  397.89
     10   2   I-Bh-Tv-   .688E-02   91.00  120.00    0.07    0.00    0.00    0.00    0.20 1132.97  400.04  433.48  262.03    1.74    0.02   14.43    0.00    0.00  399.79
     11   3   I-Bh-Tv-   .128E+01   79.00  120.00    7.36    0.00    0.00    0.00    0.20 1132.97  122.52  711.51  266.55  400.91    0.57   33.12    0.00    0.00  122.52
     12   3   I-Bh-Tv-   .198E-01   79.00  120.00    0.07    0.00    0.00    0.00    0.20 1132.97  124.63  685.70  271.15    0.51    0.00    5.90    0.00    0.00  124.56
     13   3   I-Bh-Tv-   .426E+00   91.00  120.00    8.04    0.00    0.00    0.00    0.20 1132.97  397.68  454.34  256.60 1211.86    0.61   33.44    0.00    0.00  397.68
     14   3   I-Bh-Tv-   .297E-02   91.00  120.00    0.07    0.00    0.00    0.00    0.20 1132.97  400.04  433.38  262.14    1.57    0.02   13.57    0.00    0.00  399.78
     15   3   I-Bh-Tv-   .256E-01   79.00  120.00    0.07    0.00    0.00    0.00    0.20 1132.97  124.84  690.40  265.86    0.81    0.00    8.31    0.00    0.00  124.79
     16   3   I-Bh-Tv-   .337E-01   91.00  120.00    6.34    0.00    0.00    0.00    0.20 1132.97  397.90  452.16  257.32  711.16    0.55   33.43    0.00    0.00  397.90
     17   3   I-Bh-Tv-   .156E-01   91.00  120.00    6.52    0.00    0.00    0.00    0.20 1132.97  397.88  452.40  257.24  666.73    0.55   33.42    0.00    0.00  397.88
     18   3   I-Bh-Tv-   .313E-03   91.00  120.00    0.07    0.00    0.00    0.00    0.20 1132.97  400.04  433.38  262.14    1.18    0.02   11.23    0.00    0.00  399.78
     19   3   I-Bh-Tv-   .183E-01   91.00  120.00   10.83    0.00    0.00    0.00    0.20 1132.97  397.33  457.48  255.53 1129.57    0.71   33.44    0.00    0.00  397.33
     20   3   I-Bh-Tv-   .688E-02   91.00  120.00   14.52    0.00    0.00    0.00    0.20 1132.97  396.84  461.18  254.17 1346.67    0.83   33.44    0.00    0.00  396.84
     21   3   I-Bh-Tv-   .187E-02   91.00  120.00   15.10    0.00    0.00    0.00    0.20 1132.97  396.76  461.75  253.96 1198.86    0.85   33.44    0.00    0.00  396.76



                AVE MONTHLY BASIN VALUES
                   SNOW                      WATER               SED
  MON     RAIN     FALL   SURF Q    LAT Q    YIELD       ET    YIELD      PET
          (MM)     (MM)     (MM)     (MM)     (MM)     (MM)   (T/HA)     (MM)
    1   214.12     0.00    46.02    61.01   150.95    17.16   128.34    17.80
    2   265.30     0.00    76.03    69.04   209.44    22.12   223.15    22.54
    3   192.34     0.00    35.52    53.32   171.70    33.43   100.37    34.92
    4    76.57     0.00     7.46    19.92    98.79    34.84    21.14    42.44
    5    21.34     0.00     0.52     2.60    49.29    30.80     1.57    67.38
    6     8.12     0.00     0.01     0.32    21.97    19.62     0.02    71.90
    7     6.06     0.00     0.00     0.13     7.20    16.51     0.00    78.10
    8    11.12     0.00     0.06     0.56     2.20    15.71     0.37    67.18
    9    24.62     0.00     0.40     2.30     3.61    16.29     1.38    47.35
   10    61.31     0.00     3.21     9.18    13.09    21.99     8.93    34.51
   11    96.91     0.00    13.37    23.91    40.23    20.05    35.12    24.20
   12   162.02     0.00    28.08    47.20    93.00    15.56    67.45    16.64

     AVE ANNUAL BASIN STRESS DAYS
               WATER STRESS DAYS =    11.65
               TEMPERATURE STRESS DAYS =   172.05
               NITROGEN STRESS DAYS =     0.00
               PHOSPHORUS STRESS DAYS =     0.01
               AERATION STRESS DAYS =     0.00
1
    SWAT May 26   VER 2020/Rev 681                                                  

    General Input/Output section (file.cio):                                        
    5/19/2025 12:00:00 AM ARCGIS-SWAT interface AV                                  
                                                                                    
         AVE ANNUAL BASIN VALUES

              PRECIP =   1133.0 MM
              SNOW FALL =    0.00 MM
              SNOW MELT =     0.00 MM
              SUBLIMATION =     0.00 MM
              SURFACE RUNOFF Q =   208.72 MM
              LATERAL SOIL Q =  287.70 MM
              TILE Q =     0.00 MM
              GROUNDWATER (SHAL AQ) Q =   341.16 MM
              GROUNDWATER (DEEP AQ) Q =    18.48 MM
              REVAP (SHAL AQ => SOIL/PLANTS) =   10.49 MM
              DEEP AQ RECHARGE =    18.52 MM
              TOTAL AQ RECHARGE =  370.32 MM
              TOTAL WATER YLD =   856.06 MM
              PERCOLATION OUT OF SOIL =  371.38 MM
              ET =    263.5 MM
              PET =    524.4MM
              TRANSMISSION LOSSES =     0.00 MM
              SEPTIC INFLOW =       0.00 MM
              TOTAL SEDIMENT LOADING =    582.06 T/HA
              TILE FROM IMPOUNDED WATER =     0.000 (MM)
              EVAPORATION FROM IMPOUNDED WATER =     0.000 (MM)
              SEEPAGE INTO SOIL FROM IMPOUNDED WATER =    0.000 (MM)
              OVERFLOW FROM IMPOUNDED WATER =    0.000 (MM)
1
    SWAT May 26   VER 2020/Rev 681                                                  

    General Input/Output section (file.cio):                                        
    5/19/2025 12:00:00 AM ARCGIS-SWAT interface AV                                  
                                                                                    
              AVE ANNUAL BASIN VALUES


              NUTRIENTS
                   ORGANIC N =    31.450 (KG/HA)
                   ORGANIC P =     3.841 (KG/HA)
                   NO3 YIELD (SQ) =     0.008 (KG/HA)
                   NO3 YIELD (LAT) =    0.510 (KG/HA)
                   NO3 YIELD (TILE) =    0.000 (KG/HA)
                   SOLP YIELD (TILE) =    0.000(KG/HA)
                   SOLP YIELD (SURF INLET RISER) =    0.000 (KG/HA)
                   SOL P YIELD =    0.003 (KG/HA)
                   NO3 LEACHED =     6.493 (KG/HA)
                   P LEACHED =     0.157 (KG/HA)
                   N UPTAKE =     0.010 (KG/HA)
                   P UPTAKE =    0.001 (KG/HA)
                   NO3 YIELD (GWQ) =     0.088 (KG/HA)
                   ACTIVE TO SOLUTION P FLOW =         1.167 (KG/HA)
                   ACTIVE TO STABLE P FLOW =         1.797 (KG/HA)
                   N FERTILIZER APPLIED =     0.000 (KG/HA)
                   P FERTILIZER APPLIED =     0.000 (KG/HA)
                   N FIXATION =     0.000 (KG/HA)
                   DENITRIFICATION =     0.000 (KG/HA)
                   HUMUS MIN ON ACTIVE ORG N =     7.247 (KG/HA)
                   ACTIVE TO STABLE ORG N =    -6.028 (KG/HA)
                   HUMUS MIN ON ACTIVE ORG P =    1.237 (KG/HA)
                   MIN FROM FRESH ORG N =    0.004 (KG/HA)
                   MIN FROM FRESH ORG P =    0.000 (KG/HA)
                   NO3 IN RAINFALL =     0.000 (KG/HA)
                   INITIAL NO3 IN SOIL =      35.560 (KG/HA)
                   FINAL NO3 IN SOIL =         5.379 (KG/HA)
                   INITIAL ORG N IN SOIL =   12599.999 (KG/HA)
                   FINAL ORG N IN SOIL =     11207.178 (KG/HA)
                   INITIAL MIN P IN SOIL =    1789.938 (KG/HA)
                   FINAL MIN P IN SOIL =      1709.977 (KG/HA)
                   INITIAL ORG P IN SOIL =    1543.500 (KG/HA)
                   FINAL ORG P IN SOIL =    1360.743 (KG/HA)
                   NO3 IN FERT =     0.000 (KG/HA)
                   AMMONIA IN FERT =     0.000 (KG/HA)
                   ORG N IN FERT =     0.000 (KG/HA)
                   MINERAL P IN FERT =     0.000 (KG/HA)
                   ORG P IN FERT =     0.000 (KG/HA)
                   N REMOVED IN YIELD =     0.000 (KG/HA)
                   P REMOVED IN YIELD =     0.000 (KG/HA)
                   AMMONIA VOLATILIZATION =     0.000 (KG/HA)
                   AMMONIA NITRIFICATION =      0.000 (KG/HA)
                   NO3 EVAP-LAYER 2 TO 1 =    0.755

                   DIE-GRO P Q =           0.0 (No/M2)
                   DIE-GRO LP Q =           0.0 (No/M2)
                   DIE-GRO P SED =          0.0 (No/M2)
                   DIE-GRO LP SED =          0.0 (No/M2)
                   BACT P RUNOFF =          0.0 (No/M2)
                   BACT LP RUNOFF =          0.0 (No/M2)
                   BACT P SEDIMENT =          0.0 (No/M2)
                   BACT LP SEDIMENT =          0.0 (No/M2)
                   BACT P INCORP =          0.0 (No/M2)
                   BACT LP INCORP =          0.0 (No/M2)

                   NITRATE SEPTIC =         0.00 (kg/ha)
                   AMMONIA SEPTIC =         0.00 (kg/ha)
                   ORG N SEPTIC =         0.00 (kg/ha)
                   FRESH ORGN SEPTIC =         0.00 (kg/ha)
                   ORG P SEPTIC =         0.00 (kg/ha)
                   FRESH ORGP SEPTIC =         0.00 (kg/ha)
                   SOL P SEPTIC =         0.00 (kg/ha)
                   BOD SEPTIC =         0.00 (kg/ha)
