1
    SWAT May 26   VER 2020/Rev 681                                                                       0/ 0/   0      0: 0: 0

    General Input/Output section (file.cio):                                        
    5/19/2025 12:00:00 AM ARCGIS-SWAT interface AV                                  
                                                                                    


       SUB      GIS  MON   AREAkm2  PRECIPmm SNOMELTmm     PETmm      ETmm      SWmm    PERCmm    SURQmm    GW_Qmm    WYLDmm  SYLDt/ha ORGNkg/ha ORGPkg/haNSURQkg/ha SOLPkg/ha SEDPkg/ha LAT Q(mm)LATNO3kg/hGWNO3kg/haCHOLAmic/LCBODU mg/L DOXQ mg/L TNO3kg/ha   QTILEmm TVAPkg/ha
BIGSUB    1        0    1.17227E+01   246.900     0.000    13.776    13.345   119.748    64.489    38.748     5.513   112.871   147.970   157.188    19.255     0.012     0.008    15.111    68.535     1.180     0.005 .00000E+00 0.000E+00 0.000E+00 0.000E+00 0.000E+00 0.000E+00
BIGSUB    2        0    1.22328E+01   246.900     0.000    13.791    13.363   119.840    65.490    62.952     5.699   114.271   167.937   145.671    17.845     0.028     0.011    14.067    45.542     0.828     0.007 .00000E+00 0.000E+00 0.000E+00 0.000E+00 0.000E+00 0.000E+00
BIGSUB    3        0    1.18344E+01   246.900     0.000    13.796    13.364   119.681    58.248    48.741     4.738   118.977   166.587   164.604    20.164     0.019     0.009    15.847    65.434     1.141     0.004 .00000E+00 0.000E+00 0.000E+00 0.000E+00 0.000E+00 0.000E+00
BIGSUB    1        0    2.17227E+01   320.600     0.000    16.891    16.891   119.324   124.538    80.885    37.151   218.743   336.503    30.757     3.768     0.003     0.005     3.134   100.085     0.821     0.075 .00000E+00 0.000E+00 0.000E+00 0.000E+00 0.000E+00 0.000E+00
BIGSUB    2        0    2.22328E+01   320.600     0.000    16.941    16.941   119.375   125.710   114.350    37.666   217.749   331.129    30.025     3.678     0.006     0.007     2.981    65.101     0.624     0.083 .00000E+00 0.000E+00 0.000E+00 0.000E+00 0.000E+00 0.000E+00
BIGSUB    3        0    2.18344E+01   320.600     0.000    16.955    16.955   119.282   115.874    94.307    33.960   223.831   360.138    30.083     3.685     0.004     0.005     3.058    94.997     0.818     0.065 .00000E+00 0.000E+00 0.000E+00 0.000E+00 0.000E+00 0.000E+00
BIGSUB    1        0    3.17227E+01   272.400     0.000    33.621    33.334   119.201    95.524    65.406    81.878   231.434   230.474     0.377     0.046     0.001     0.002     0.064    82.386     0.302     0.159 .00000E+00 0.000E+00 0.000E+00 0.000E+00 0.000E+00 0.000E+00
BIGSUB    2        0    3.22328E+01   272.400     0.000    33.739    33.450   119.202    96.824    91.017    82.641   229.406   233.798     2.519     0.309     0.003     0.002     0.272    53.964     0.250     0.167 .00000E+00 0.000E+00 0.000E+00 0.000E+00 0.000E+00 0.000E+00
BIGSUB    3        0    3.18344E+01   272.400     0.000    33.773    33.483   119.190    88.754    75.755    75.724   231.421   249.289     0.300     0.037     0.002     0.001     0.057    78.316     0.311     0.144 .00000E+00 0.000E+00 0.000E+00 0.000E+00 0.000E+00 0.000E+00
BIGSUB    1        0    4.17227E+01    53.100     0.000    49.464    31.410   105.161    15.637     6.136    77.514   101.941    20.307     0.022     0.003     0.000     0.000     0.004    15.918     0.041     0.087 .00000E+00 0.000E+00 0.000E+00 0.000E+00 0.000E+00 0.000E+00
BIGSUB    2        0    4.22328E+01    53.100     0.000    49.597    31.482   105.141    16.001    10.369    78.448   101.950    29.081     0.104     0.013     0.001     0.000     0.012    10.733     0.035     0.091 .00000E+00 0.000E+00 0.000E+00 0.000E+00 0.000E+00 0.000E+00
BIGSUB    3        0    4.18344E+01    53.100     0.000    49.636    31.501   105.128    14.476     7.856    71.881    97.168    25.152     0.011     0.001     0.001     0.000     0.003    15.239     0.043     0.081 .00000E+00 0.000E+00 0.000E+00 0.000E+00 0.000E+00 0.000E+00
BIGSUB    1        0    5.17227E+01    11.300     0.000    59.238    21.038    94.921     0.000     0.000    47.272    50.094     0.000     0.000     0.000     0.000     0.000     0.000     0.450     0.000     0.023 .00000E+00 0.000E+00 0.000E+00 0.000E+00 0.000E+00 0.000E+00
BIGSUB    2        0    5.22328E+01    11.300     0.000    59.451    21.089    94.964     0.000     0.001    47.968    50.716     0.001     0.000     0.000     0.000     0.000     0.000     0.347     0.000     0.025 .00000E+00 0.000E+00 0.000E+00 0.000E+00 0.000E+00 0.000E+00
BIGSUB    3        0    5.18344E+01    11.300     0.000    59.514    21.084    94.842     0.000     0.000    43.875    46.519     0.000     0.000     0.000     0.000     0.000     0.000     0.449     0.000     0.022 .00000E+00 0.000E+00 0.000E+00 0.000E+00 0.000E+00 0.000E+00
BIGSUB    1        0    6.17227E+01     8.000     0.000    63.737    16.104    86.499     0.000     0.002    21.014    23.285     0.003     0.000     0.000     0.000     0.000     0.000     0.370     0.000     0.004 .00000E+00 0.000E+00 0.000E+00 0.000E+00 0.000E+00 0.000E+00
BIGSUB    2        0    6.22328E+01     8.000     0.000    63.968    16.168    86.547     0.000     0.006    21.343    23.557     0.009     0.000     0.000     0.000     0.000     0.000     0.285     0.000     0.004 .00000E+00 0.000E+00 0.000E+00 0.000E+00 0.000E+00 0.000E+00
BIGSUB    3        0    6.18344E+01     8.000     0.000    64.035    16.116    86.406     0.000     0.004    19.505    21.636     0.005     0.000     0.000     0.000     0.000     0.000     0.370     0.000     0.004 .00000E+00 0.000E+00 0.000E+00 0.000E+00 0.000E+00 0.000E+00
BIGSUB    1        0    7.17227E+01     5.200     0.000    59.088    13.832    77.867     0.000     0.000     6.720     8.247     0.000     0.000     0.000     0.000     0.000     0.000     0.000     0.000     0.001 .00000E+00 0.000E+00 0.000E+00 0.000E+00 0.000E+00 0.000E+00
BIGSUB    2        0    7.22328E+01     5.200     0.000    59.302    13.066    78.681     0.000     0.000     6.816     8.363     0.000     0.000     0.000     0.000     0.000     0.000     0.000     0.000     0.001 .00000E+00 0.000E+00 0.000E+00 0.000E+00 0.000E+00 0.000E+00
BIGSUB    3        0    7.18344E+01     5.200     0.000    59.364    13.615    77.991     0.000     0.000     5.900     7.314     0.000     0.000     0.000     0.000     0.000     0.000     0.000     0.000     0.000 .00000E+00 0.000E+00 0.000E+00 0.000E+00 0.000E+00 0.000E+00
BIGSUB    1        0    8.17227E+01    17.000     0.000    55.417    18.404    75.230     0.000     0.029     0.452     2.800     0.163     0.000     0.000     0.000     0.000     0.000     1.169     0.002     0.000 .00000E+00 0.000E+00 0.000E+00 0.000E+00 0.000E+00 0.000E+00
BIGSUB    2        0    8.22328E+01    17.000     0.000    55.634    17.561    77.111     0.000     0.104     0.598     2.746     0.459     0.000     0.000     0.001     0.000     0.000     0.879     0.002     0.000 .00000E+00 0.000E+00 0.000E+00 0.000E+00 0.000E+00 0.000E+00
BIGSUB    3        0    8.18344E+01    17.000     0.000    55.697    18.161    75.575     0.000     0.060     0.295     2.579     0.287     0.000     0.000     0.000     0.000     0.000     1.160     0.002     0.000 .00000E+00 0.000E+00 0.000E+00 0.000E+00 0.000E+00 0.000E+00
BIGSUB    1        0    9.17227E+01    23.000     0.000    41.425    17.763    78.206     0.000     0.064     0.009     3.121     0.296     0.000     0.000     0.000     0.000     0.000     2.218     0.002     0.000 .00000E+00 0.000E+00 0.000E+00 0.000E+00 0.000E+00 0.000E+00
BIGSUB    2        0    9.22328E+01    23.000     0.000    41.550    17.456    80.774     0.000     0.229     0.017     2.755     0.857     0.000     0.000     0.000     0.000     0.000     1.668     0.001     0.000 .00000E+00 0.000E+00 0.000E+00 0.000E+00 0.000E+00 0.000E+00
BIGSUB    3        0    9.18344E+01    23.000     0.000    41.587    17.652    78.611     0.000     0.131     0.003     3.106     0.527     0.000     0.000     0.000     0.000     0.000     2.203     0.002     0.000 .00000E+00 0.000E+00 0.000E+00 0.000E+00 0.000E+00 0.000E+00
BIGSUB    1        0   10.17227E+01    49.400     0.000    32.649    19.646   100.091     0.000     0.437     0.000     7.915     1.401     0.000     0.000     0.000     0.000     0.000     6.841     0.001     0.000 .00000E+00 0.000E+00 0.000E+00 0.000E+00 0.000E+00 0.000E+00
BIGSUB    2        0   10.22328E+01    49.400     0.000    32.697    19.881   103.125     0.000     1.586     0.000     7.337     4.118     0.000     0.000     0.001     0.000     0.000     5.106     0.001     0.000 .00000E+00 0.000E+00 0.000E+00 0.000E+00 0.000E+00 0.000E+00
BIGSUB    3        0   10.18344E+01    49.400     0.000    32.711    19.586   100.171     0.000     0.900     0.000     8.258     2.511     0.000     0.000     0.000     0.000     0.000     6.768     0.001     0.000 .00000E+00 0.000E+00 0.000E+00 0.000E+00 0.000E+00 0.000E+00
BIGSUB    1        0   11.17227E+01   115.800     0.000    19.540    18.480   119.619    32.950     6.949     1.494    44.876    25.848     0.016     0.002     0.001     0.000     0.003    35.953     0.159     0.000 .00000E+00 0.000E+00 0.000E+00 0.000E+00 0.000E+00 0.000E+00
BIGSUB    2        0   11.22328E+01   115.800     0.000    19.566    18.477   119.633    38.758    14.708     2.040    43.281    41.188     0.077     0.009     0.001     0.000     0.010    26.039     0.136     0.000 .00000E+00 0.000E+00 0.000E+00 0.000E+00 0.000E+00 0.000E+00
BIGSUB    3        0   11.18344E+01   115.800     0.000    19.573    18.498   119.610    30.789    10.111     1.220    46.891    33.492     0.008     0.001     0.001     0.000     0.003    35.117     0.163     0.000 .00000E+00 0.000E+00 0.000E+00 0.000E+00 0.000E+00 0.000E+00
BIGSUB    1        0   12.17227E+01   187.700     0.000    13.417    13.343   118.922    82.193    26.909    20.945   111.349    68.300     0.077     0.010     0.001     0.000     0.013    62.795     0.242     0.009 .00000E+00 0.000E+00 0.000E+00 0.000E+00 0.000E+00 0.000E+00
BIGSUB    2        0   12.22328E+01   187.700     0.000    13.420    13.332   118.985    85.831    43.862    23.568   111.438    86.461     0.309     0.038     0.001     0.001     0.035    43.252     0.199     0.011 .00000E+00 0.000E+00 0.000E+00 0.000E+00 0.000E+00 0.000E+00
BIGSUB    3        0   12.18344E+01   187.700     0.000    13.421    13.342   118.888    77.679    33.894    19.580   114.707    80.268     0.035     0.004     0.001     0.000     0.009    60.581     0.248     0.008 .00000E+00 0.000E+00 0.000E+00 0.000E+00 0.000E+00 0.000E+00
BIGSUB    1        0 1981.17227E+01  1310.400     0.000   458.263   233.590   118.922   415.331   225.566   299.962   916.677   831.265   188.439    23.084     0.017     0.015    18.330   376.720     2.751     0.364 .00000E+00 0.000E+00 0.000E+00 0.000E+00 0.000E+00 0.000E+00
BIGSUB    2        0 1981.22328E+01  1310.400     0.000   459.657   232.265   118.985   428.615   339.184   306.803   913.569   895.037   178.705    21.891     0.041     0.021    17.376   252.915     2.077     0.388 .00000E+00 0.000E+00 0.000E+00 0.000E+00 0.000E+00 0.000E+00
BIGSUB    3        0 1981.18344E+01  1310.400     0.000   460.062   233.358   118.888   385.820   271.758   276.681   922.405   918.257   195.041    23.892     0.028     0.015    18.977   360.635     2.731     0.329 .00000E+00 0.000E+00 0.000E+00 0.000E+00 0.000E+00 0.000E+00
BIGSUB    1        0    1.17227E+01   205.900     0.000    16.285    16.285   119.710    89.677    27.109    49.933   150.538   113.427    20.831     2.551     0.000     0.001     2.009    72.197     0.174     0.029 .00000E+00 0.000E+00 0.000E+00 0.000E+00 0.000E+00 0.000E+00
BIGSUB    2        0    1.22328E+01   205.900     0.000    16.295    16.295   119.757    93.649    45.808    53.425   150.103   139.022    21.131     2.588     0.001     0.002     2.046    49.479     0.147     0.033 .00000E+00 0.000E+00 0.000E+00 0.000E+00 0.000E+00 0.000E+00
BIGSUB    3        0    1.18344E+01   205.900     0.000    16.298    16.298   119.674    84.675    34.716    47.182   152.672   131.630    22.395     2.743     0.001     0.001     2.162    69.553     0.181     0.028 .00000E+00 0.000E+00 0.000E+00 0.000E+00 0.000E+00 0.000E+00
BIGSUB    1        0    2.17227E+01   310.000     0.000    17.883    17.883   119.846   122.892    71.333    72.263   245.839   280.050     9.118     1.117     0.000     0.002     0.902   100.326     0.142     0.042 .00000E+00 0.000E+00 0.000E+00 0.000E+00 0.000E+00 0.000E+00
BIGSUB    2        0    2.22328E+01   310.000     0.000    17.929    17.929   119.870   124.011   104.311    75.156   246.778   287.937     7.120     0.872     0.001     0.002     0.704    65.293     0.118     0.047 .00000E+00 0.000E+00 0.000E+00 0.000E+00 0.000E+00 0.000E+00
BIGSUB    3        0    2.18344E+01   310.000     0.000    17.943    17.942   119.830   114.327    84.702    67.937   249.681   304.327     8.367     1.025     0.000     0.001     0.830    95.240     0.147     0.042 .00000E+00 0.000E+00 0.000E+00 0.000E+00 0.000E+00 0.000E+00
BIGSUB    1        0    3.17227E+01   142.100     0.000    39.350    38.199   117.595    46.753    18.370    90.081   154.438    59.608     0.146     0.018     0.000     0.000     0.018    43.121     0.047     0.037 .00000E+00 0.000E+00 0.000E+00 0.000E+00 0.000E+00 0.000E+00
BIGSUB    2        0    3.22328E+01   142.100     0.000    39.437    38.281   117.591    47.840    30.924    92.436   155.184    77.458     0.381     0.047     0.001     0.000     0.040    28.844     0.040     0.040 .00000E+00 0.000E+00 0.000E+00 0.000E+00 0.000E+00 0.000E+00
BIGSUB    3        0    3.18344E+01   142.100     0.000    39.462    38.300   117.588    43.374    23.484    84.287   151.678    70.768     0.132     0.016     0.001     0.000     0.017    41.220     0.049     0.036 .00000E+00 0.000E+00 0.000E+00 0.000E+00 0.000E+00 0.000E+00
BIGSUB    1        0    4.17227E+01    72.500     0.000    34.566    29.144   116.305    19.592     5.914    67.939    96.500    16.156     0.035     0.004     0.000     0.000     0.004    19.707     0.021     0.016 .00000E+00 0.000E+00 0.000E+00 0.000E+00 0.000E+00 0.000E+00
BIGSUB    2        0    4.22328E+01    72.500     0.000    34.705    29.232   115.933    20.371    11.687    69.542    97.525    26.787     0.099     0.012     0.001     0.000     0.010    13.256     0.018     0.017 .00000E+00 0.000E+00 0.000E+00 0.000E+00 0.000E+00 0.000E+00
BIGSUB    3        0    4.18344E+01    72.500     0.000    34.746    29.251   116.116    18.144     8.265    63.384    93.258    21.370     0.030     0.004     0.000     0.000     0.004    18.856     0.022     0.016 .00000E+00 0.000E+00 0.000E+00 0.000E+00 0.000E+00 0.000E+00
BIGSUB    1        0    5.17227E+01    16.800     0.000    48.102    26.901   104.615     0.000     0.118    40.433    44.958     0.474     0.000     0.000     0.000     0.000     0.000     1.692     0.000     0.004 .00000E+00 0.000E+00 0.000E+00 0.000E+00 0.000E+00 0.000E+00
BIGSUB    2        0    5.22328E+01    16.800     0.000    48.304    26.939   104.303     0.000     0.414    41.470    45.901     1.372     0.000     0.000     0.000     0.000     0.000     1.214     0.000     0.005 .00000E+00 0.000E+00 0.000E+00 0.000E+00 0.000E+00 0.000E+00
BIGSUB    3        0    5.18344E+01    16.800     0.000    48.363    26.876   104.352     0.000     0.236    37.647    42.077     0.845     0.000     0.000     0.000     0.000     0.000     1.655     0.000     0.004 .00000E+00 0.000E+00 0.000E+00 0.000E+00 0.000E+00 0.000E+00
BIGSUB    1        0    6.17227E+01     7.700     0.000    62.968    20.457    91.710     0.000     0.000    17.771    20.122     0.000     0.000     0.000     0.000     0.000     0.000     0.240     0.000     0.001 .00000E+00 0.000E+00 0.000E+00 0.000E+00 0.000E+00 0.000E+00
BIGSUB    2        0    6.22328E+01     7.700     0.000    63.197    20.479    91.411     0.000     0.000    18.356    20.720     0.000     0.000     0.000     0.000     0.000     0.000     0.184     0.000     0.001 .00000E+00 0.000E+00 0.000E+00 0.000E+00 0.000E+00 0.000E+00
BIGSUB    3        0    6.18344E+01     7.700     0.000    63.264    20.435    91.469     0.000     0.000    16.510    18.721     0.000     0.000     0.000     0.000     0.000     0.000     0.239     0.000     0.001 .00000E+00 0.000E+00 0.000E+00 0.000E+00 0.000E+00 0.000E+00
BIGSUB    1        0    7.17227E+01     6.700     0.000    53.861    14.904    83.505     0.000     0.000     4.747     6.424     0.000     0.000     0.000     0.000     0.000     0.000     0.001     0.000     0.000 .00000E+00 0.000E+00 0.000E+00 0.000E+00 0.000E+00 0.000E+00
BIGSUB    2        0    7.22328E+01     6.700     0.000    54.071    14.511    83.600     0.000     0.000     5.084     6.814     0.000     0.000     0.000     0.000     0.000     0.000     0.001     0.000     0.000 .00000E+00 0.000E+00 0.000E+00 0.000E+00 0.000E+00 0.000E+00
BIGSUB    3        0    7.18344E+01     6.700     0.000    54.132    14.795    83.374     0.000     0.000     4.015     5.581     0.000     0.000     0.000     0.000     0.000     0.000     0.001     0.000     0.000 .00000E+00 0.000E+00 0.000E+00 0.000E+00 0.000E+00 0.000E+00
BIGSUB    1        0    8.17227E+01    12.300     0.000    48.020    17.299    78.036     0.000     0.000     0.304     1.992     0.000     0.000     0.000     0.000     0.000     0.000     0.434     0.001     0.000 .00000E+00 0.000E+00 0.000E+00 0.000E+00 0.000E+00 0.000E+00
BIGSUB    2        0    8.22328E+01    12.300     0.000    48.217    16.458    79.087     0.000     0.000     0.343     1.964     0.000     0.000     0.000     0.000     0.000     0.000     0.326     0.001     0.000 .00000E+00 0.000E+00 0.000E+00 0.000E+00 0.000E+00 0.000E+00
BIGSUB    3        0    8.18344E+01    12.300     0.000    48.275    17.063    78.145     0.000     0.000     0.292     1.894     0.000     0.000     0.000     0.000     0.000     0.000     0.430     0.001     0.000 .00000E+00 0.000E+00 0.000E+00 0.000E+00 0.000E+00 0.000E+00
BIGSUB    1        0    9.17227E+01    21.900     0.000    42.341    16.473    81.207     0.000     0.108     0.011     2.779     0.658     0.000     0.000     0.000     0.000     0.000     1.757     0.002     0.000 .00000E+00 0.000E+00 0.000E+00 0.000E+00 0.000E+00 0.000E+00
BIGSUB    2        0    9.22328E+01    21.900     0.000    42.481    16.000    83.009     0.000     0.387     0.020     2.648     1.882     0.000     0.000     0.001     0.000     0.000     1.308     0.002     0.000 .00000E+00 0.000E+00 0.000E+00 0.000E+00 0.000E+00 0.000E+00
BIGSUB    3        0    9.18344E+01    21.900     0.000    42.522    16.333    81.368     0.000     0.222     0.004     2.808     1.168     0.000     0.000     0.000     0.000     0.000     1.739     0.002     0.000 .00000E+00 0.000E+00 0.000E+00 0.000E+00 0.000E+00 0.000E+00
BIGSUB    1        0   10.17227E+01    74.000     0.000    26.866    22.308   115.807     1.009     1.571     0.016    16.113     4.862     0.004     0.001     0.000     0.000     0.001    13.834     0.020     0.000 .00000E+00 0.000E+00 0.000E+00 0.000E+00 0.000E+00 0.000E+00
BIGSUB    2        0   10.22328E+01    74.000     0.000    26.973    22.449   117.581     1.987     4.391     0.031    15.200    11.312     0.013     0.002     0.001     0.000     0.001    10.063     0.015     0.000 .00000E+00 0.000E+00 0.000E+00 0.000E+00 0.000E+00 0.000E+00
BIGSUB    3        0   10.18344E+01    74.000     0.000    27.004    22.341   115.718     0.403     2.687     0.006    16.880     7.596     0.003     0.000     0.001     0.000     0.000    13.541     0.020     0.000 .00000E+00 0.000E+00 0.000E+00 0.000E+00 0.000E+00 0.000E+00
BIGSUB    1        0   11.17227E+01   115.800     0.000    18.619    18.471   119.970    44.065    10.476     5.780    55.977    35.352     0.058     0.007     0.000     0.000     0.007    39.135     0.137     0.001 .00000E+00 0.000E+00 0.000E+00 0.000E+00 0.000E+00 0.000E+00
BIGSUB    2        0   11.22328E+01   115.800     0.000    18.654    18.458   119.971    48.578    19.046     7.095    54.495    48.550     0.170     0.021     0.001     0.000     0.017    27.733     0.109     0.001 .00000E+00 0.000E+00 0.000E+00 0.000E+00 0.000E+00 0.000E+00
BIGSUB    3        0   11.18344E+01   115.800     0.000    18.664    18.502   119.969    41.604    13.968     5.263    57.764    42.954     0.048     0.006     0.001     0.000     0.006    37.989     0.138     0.001 .00000E+00 0.000E+00 0.000E+00 0.000E+00 0.000E+00 0.000E+00
BIGSUB    1        0   12.17227E+01    77.200     0.000    15.157    14.499   119.915    29.868     7.580    20.174    54.007    27.470     0.040     0.005     0.000     0.000     0.005    25.473     0.076     0.004 .00000E+00 0.000E+00 0.000E+00 0.000E+00 0.000E+00 0.000E+00
BIGSUB    2        0   12.22328E+01    77.200     0.000    15.157    14.461   119.918    31.781    13.238    22.479    54.466    36.027     0.121     0.015     0.000     0.000     0.012    17.906     0.060     0.005 .00000E+00 0.000E+00 0.000E+00 0.000E+00 0.000E+00 0.000E+00
BIGSUB    3        0   12.18344E+01    77.200     0.000    15.157    14.489   119.914    28.327     9.890    18.945    54.281    32.744     0.032     0.004     0.000     0.000     0.004    24.718     0.077     0.004 .00000E+00 0.000E+00 0.000E+00 0.000E+00 0.000E+00 0.000E+00
BIGSUB    1        0 1982.17227E+01  1062.900     0.000   424.017   252.824   119.915   353.857   142.580   369.452   849.687   538.057    30.234     3.704     0.002     0.003     2.946   317.917     0.622     0.134 .00000E+00 0.000E+00 0.000E+00 0.000E+00 0.000E+00 0.000E+00
BIGSUB    2        0 1982.22328E+01  1062.900     0.000   425.422   251.493   119.918   368.218   230.205   385.434   851.796   630.347    29.036     3.556     0.006     0.005     2.831   215.608     0.511     0.149 .00000E+00 0.000E+00 0.000E+00 0.000E+00 0.000E+00 0.000E+00
BIGSUB    3        0 1982.18344E+01  1062.900     0.000   425.830   252.626   119.914   330.853   178.170   345.472   847.295   613.401    31.008     3.798     0.004     0.002     3.024   305.180     0.638     0.132 .00000E+00 0.000E+00 0.000E+00 0.000E+00 0.000E+00 0.000E+00
BIGSUB    1        0    1.17227E+01   152.700     0.000    12.399    12.399   120.041    65.169    22.561    31.090   105.232    56.792    17.332     2.122     0.000     0.001     1.669    50.553     0.126     0.008 .00000E+00 0.000E+00 0.000E+00 0.000E+00 0.000E+00 0.000E+00
BIGSUB    2        0    1.22328E+01   152.700     0.000    12.419    12.419   120.083    68.198    35.792    33.451   105.153    72.878    18.523     2.268     0.001     0.001     1.787    34.802     0.100     0.010 .00000E+00 0.000E+00 0.000E+00 0.000E+00 0.000E+00 0.000E+00
BIGSUB    3        0    1.18344E+01   152.700     0.000    12.425    12.425   120.012    61.630    27.963    29.371   107.058    67.105    18.985     2.325     0.000     0.001     1.830    48.757     0.128     0.008 .00000E+00 0.000E+00 0.000E+00 0.000E+00 0.000E+00 0.000E+00
BIGSUB    1        0    2.17227E+01   196.000     0.000    22.474    22.049   118.735    57.165    71.023    40.629   160.539   327.177    12.727     1.558     0.001     0.002     1.252    47.605     0.089     0.012 .00000E+00 0.000E+00 0.000E+00 0.000E+00 0.000E+00 0.000E+00
BIGSUB    2        0    2.22328E+01   196.000     0.000    22.528    22.100   118.740    57.584    87.043    42.580   161.882   274.332    10.747     1.316     0.002     0.002     1.058    30.897     0.067     0.014 .00000E+00 0.000E+00 0.000E+00 0.000E+00 0.000E+00 0.000E+00
BIGSUB    3        0    2.18344E+01   196.000     0.000    22.544    22.114   118.719    52.964    77.547    38.247   162.147   332.357    11.953     1.463     0.001     0.001     1.179    45.147     0.089     0.012 .00000E+00 0.000E+00 0.000E+00 0.000E+00 0.000E+00 0.000E+00
BIGSUB    1        0    3.17227E+01   255.900     0.000    33.645    33.644   117.870    92.121    54.979    58.749   187.780   230.912     0.201     0.025     0.001     0.001     0.034    72.168     0.102     0.019 .00000E+00 0.000E+00 0.000E+00 0.000E+00 0.000E+00 0.000E+00
BIGSUB    2        0    3.22328E+01   255.900     0.000    33.741    33.741   117.954    92.913    79.964    60.120   189.517   238.791     0.449     0.055     0.001     0.001     0.053    47.468     0.081     0.020 .00000E+00 0.000E+00 0.000E+00 0.000E+00 0.000E+00 0.000E+00
BIGSUB    3        0    3.18344E+01   255.900     0.000    33.770    33.769   117.803    85.542    65.478    54.829   190.752   251.456     0.076     0.009     0.001     0.000     0.022    68.681     0.104     0.018 .00000E+00 0.000E+00 0.000E+00 0.000E+00 0.000E+00 0.000E+00
BIGSUB    1        0    4.17227E+01   102.500     0.000    36.780    35.594   114.741    32.180     9.546    63.996   109.546    33.363     0.054     0.007     0.000     0.000     0.006    33.731     0.039     0.017 .00000E+00 0.000E+00 0.000E+00 0.000E+00 0.000E+00 0.000E+00
BIGSUB    2        0    4.22328E+01   102.500     0.000    36.904    35.711   114.813    33.680    17.201    65.261   107.650    47.943     0.118     0.014     0.001     0.000     0.011    22.840     0.032     0.018 .00000E+00 0.000E+00 0.000E+00 0.000E+00 0.000E+00 0.000E+00
BIGSUB    3        0    4.18344E+01   102.500     0.000    36.940    35.728   114.715    30.065    12.346    59.613   106.425    41.351     0.022     0.003     0.000     0.000     0.003    32.344     0.040     0.016 .00000E+00 0.000E+00 0.000E+00 0.000E+00 0.000E+00 0.000E+00
BIGSUB    1        0    5.17227E+01    19.800     0.000    50.865    30.566   102.726     0.000     0.061    46.111    49.894     0.303     0.000     0.000     0.000     0.000     0.000     1.395     0.000     0.006 .00000E+00 0.000E+00 0.000E+00 0.000E+00 0.000E+00 0.000E+00
BIGSUB    2        0    5.22328E+01    19.800     0.000    51.107    30.723   102.788     0.000     0.215    47.166    50.822     0.868     0.000     0.000     0.000     0.000     0.000     1.041     0.000     0.007 .00000E+00 0.000E+00 0.000E+00 0.000E+00 0.000E+00 0.000E+00
BIGSUB    3        0    5.18344E+01    19.800     0.000    51.177    30.606   102.609     0.000     0.123    42.954    46.632     0.538     0.000     0.000     0.000     0.000     0.000     1.380     0.000     0.006 .00000E+00 0.000E+00 0.000E+00 0.000E+00 0.000E+00 0.000E+00
BIGSUB    1        0    6.17227E+01    12.300     0.000    46.617    21.313    93.320     0.000     0.004    21.974    24.256     0.006     0.000     0.000     0.000     0.000     0.000     0.387     0.000     0.001 .00000E+00 0.000E+00 0.000E+00 0.000E+00 0.000E+00 0.000E+00
BIGSUB    2        0    6.22328E+01    12.300     0.000    46.806    20.896    93.886     0.000     0.013    22.502    24.756     0.018     0.000     0.000     0.000     0.000     0.000     0.292     0.000     0.001 .00000E+00 0.000E+00 0.000E+00 0.000E+00 0.000E+00 0.000E+00
BIGSUB    3        0    6.18344E+01    12.300     0.000    46.861    21.183    93.333     0.000     0.008    20.469    22.626     0.011     0.000     0.000     0.000     0.000     0.000     0.384     0.000     0.001 .00000E+00 0.000E+00 0.000E+00 0.000E+00 0.000E+00 0.000E+00
BIGSUB    1        0    7.17227E+01    11.000     0.000    46.066    18.160    85.979     0.000     0.000     8.007     9.727     0.000     0.000     0.000     0.000     0.000     0.000     0.190     0.000     0.000 .00000E+00 0.000E+00 0.000E+00 0.000E+00 0.000E+00 0.000E+00
BIGSUB    2        0    7.22328E+01    11.000     0.000    46.278    17.850    86.900     0.000     0.000     8.145     9.862     0.000     0.000     0.000     0.000     0.000     0.000     0.142     0.000     0.000 .00000E+00 0.000E+00 0.000E+00 0.000E+00 0.000E+00 0.000E+00
BIGSUB    3        0    7.18344E+01    11.000     0.000    46.339    18.069    86.085     0.000     0.000     6.962     8.578     0.000     0.000     0.000     0.000     0.000     0.000     0.187     0.000     0.000 .00000E+00 0.000E+00 0.000E+00 0.000E+00 0.000E+00 0.000E+00
BIGSUB    1        0    8.17227E+01    12.800     0.000    49.069    18.086    80.269     0.000     0.000     0.643     2.185     0.000     0.000     0.000     0.000     0.000     0.000     0.387     0.001     0.000 .00000E+00 0.000E+00 0.000E+00 0.000E+00 0.000E+00 0.000E+00
BIGSUB    2        0    8.22328E+01    12.800     0.000    49.278    17.857    81.523     0.000     0.000     0.800     2.282     0.000     0.000     0.000     0.000     0.000     0.000     0.292     0.000     0.000 .00000E+00 0.000E+00 0.000E+00 0.000E+00 0.000E+00 0.000E+00
BIGSUB    3        0    8.18344E+01    12.800     0.000    49.338    18.019    80.445     0.000     0.000     0.490     1.952     0.000     0.000     0.000     0.000     0.000     0.000     0.384     0.001     0.000 .00000E+00 0.000E+00 0.000E+00 0.000E+00 0.000E+00 0.000E+00
BIGSUB    1        0    9.17227E+01    30.900     0.000    38.526    19.159    88.459     0.000     0.131     0.015     4.000     0.596     0.000     0.000     0.000     0.000     0.000     3.018     0.002     0.000 .00000E+00 0.000E+00 0.000E+00 0.000E+00 0.000E+00 0.000E+00
BIGSUB    2        0    9.22328E+01    30.900     0.000    38.654    19.189    90.205     0.000     0.469     0.028     3.612     1.721     0.000     0.000     0.001     0.000     0.000     2.254     0.001     0.000 .00000E+00 0.000E+00 0.000E+00 0.000E+00 0.000E+00 0.000E+00
BIGSUB    3        0    9.18344E+01    30.900     0.000    38.692    19.140    88.545     0.000     0.268     0.006     4.045     1.059     0.000     0.000     0.001     0.000     0.000     2.991     0.002     0.000 .00000E+00 0.000E+00 0.000E+00 0.000E+00 0.000E+00 0.000E+00
BIGSUB    1        0   10.17227E+01    48.800     0.000    39.189    26.835   102.590     0.000     0.893     0.000     8.861     2.856     0.001     0.000     0.000     0.000     0.000     7.327     0.001     0.000 .00000E+00 0.000E+00 0.000E+00 0.000E+00 0.000E+00 0.000E+00
BIGSUB    2        0   10.22328E+01    48.800     0.000    39.265    27.213   104.012     0.000     2.686     0.000     8.733     6.805     0.003     0.000     0.001     0.000     0.000     5.386     0.001     0.000 .00000E+00 0.000E+00 0.000E+00 0.000E+00 0.000E+00 0.000E+00
BIGSUB    3        0   10.18344E+01    48.800     0.000    39.287    26.732   102.190     0.000     1.610     0.000     9.407     4.526     0.001     0.000     0.001     0.000     0.000     7.198     0.001     0.000 .00000E+00 0.000E+00 0.000E+00 0.000E+00 0.000E+00 0.000E+00
BIGSUB    1        0   11.17227E+01    56.000     0.000    24.477    18.923   118.581     3.696     4.535     0.023    16.779    18.163     0.016     0.002     0.001     0.000     0.002    11.761     0.032     0.000 .00000E+00 0.000E+00 0.000E+00 0.000E+00 0.000E+00 0.000E+00
BIGSUB    2        0   11.22328E+01    56.000     0.000    24.508    18.935   118.190     5.694     8.239     0.045    16.959    25.027     0.036     0.004     0.001     0.000     0.004     8.201     0.023     0.000 .00000E+00 0.000E+00 0.000E+00 0.000E+00 0.000E+00 0.000E+00
BIGSUB    3        0   11.18344E+01    56.000     0.000    24.517    18.881   118.254     2.673     5.987     0.009    17.782    22.062     0.006     0.001     0.001     0.000     0.001    11.357     0.031     0.000 .00000E+00 0.000E+00 0.000E+00 0.000E+00 0.000E+00 0.000E+00
BIGSUB    1        0   12.17227E+01   212.000     0.000    12.451    12.380   119.539    95.117    27.427    14.180   115.951    66.497     0.074     0.009     0.001     0.000     0.008    73.771     0.239     0.004 .00000E+00 0.000E+00 0.000E+00 0.000E+00 0.000E+00 0.000E+00
BIGSUB    2        0   12.22328E+01   212.000     0.000    12.456    12.353   119.547    98.438    48.145    15.376   114.208    92.461     0.163     0.020     0.001     0.000     0.016    50.085     0.183     0.005 .00000E+00 0.000E+00 0.000E+00 0.000E+00 0.000E+00 0.000E+00
BIGSUB    3        0   12.18344E+01   212.000     0.000    12.458    12.378   119.531    89.348    35.881    13.017   120.282    81.237     0.030     0.004     0.001     0.000     0.004    70.853     0.238     0.004 .00000E+00 0.000E+00 0.000E+00 0.000E+00 0.000E+00 0.000E+00
BIGSUB    1        0 1983.17227E+01  1110.700     0.000   412.558   269.108   119.539   345.448   191.161   285.416   794.751   736.665    30.404     3.723     0.004     0.004     2.970   302.292     0.631     0.069 .00000E+00 0.000E+00 0.000E+00 0.000E+00 0.000E+00 0.000E+00
BIGSUB    2        0 1983.22328E+01  1110.700     0.000   413.944   268.987   119.547   356.506   279.768   295.474   795.435   760.844    30.039     3.678     0.009     0.006     2.930   203.700     0.490     0.075 .00000E+00 0.000E+00 0.000E+00 0.000E+00 0.000E+00 0.000E+00
BIGSUB    3        0 1983.18344E+01  1110.700     0.000   414.347   269.043   119.531   322.222   227.211   265.967   797.685   801.702    31.073     3.804     0.006     0.003     3.038   289.665     0.634     0.064 .00000E+00 0.000E+00 0.000E+00 0.000E+00 0.000E+00 0.000E+00
BIGSUB    1        0    1.17227E+01   211.400     0.000    18.777    18.777   119.402    89.778    30.629    46.879   149.688   103.971    20.063     2.456     0.001     0.001     1.939    71.001     0.133     0.018 .00000E+00 0.000E+00 0.000E+00 0.000E+00 0.000E+00 0.000E+00
BIGSUB    2        0    1.22328E+01   211.400     0.000    18.787    18.787   119.451    92.772    51.010    49.134   149.382   128.795    20.461     2.505     0.001     0.002     1.984    48.003     0.106     0.021 .00000E+00 0.000E+00 0.000E+00 0.000E+00 0.000E+00 0.000E+00
BIGSUB    3        0    1.18344E+01   211.400     0.000    18.790    18.790   119.367    84.407    38.969    43.833   152.034   121.153    21.650     2.650     0.001     0.001     2.096    68.133     0.135     0.017 .00000E+00 0.000E+00 0.000E+00 0.000E+00 0.000E+00 0.000E+00
BIGSUB    1        0    2.17227E+01   434.000     0.000    18.507    18.507   119.542   163.086   123.055    75.534   328.098   344.381     9.906     1.213     0.000     0.002     0.982   127.588     0.132     0.033 .00000E+00 0.000E+00 0.000E+00 0.000E+00 0.000E+00 0.000E+00
BIGSUB    2        0    2.22328E+01   434.000     0.000    18.563    18.563   119.588   162.110   170.774    77.537   331.726   338.805     8.293     1.016     0.001     0.003     0.816    81.426     0.105     0.035 .00000E+00 0.000E+00 0.000E+00 0.000E+00 0.000E+00 0.000E+00
BIGSUB    3        0    2.18344E+01   434.000     0.000    18.580    18.580   119.509   150.838   142.533    70.582   335.381   368.489     9.038     1.108     0.001     0.002     0.899   120.472     0.134     0.031 .00000E+00 0.000E+00 0.000E+00 0.000E+00 0.000E+00 0.000E+00
BIGSUB    1        0    3.17227E+01   258.500     0.000    39.679    39.583   119.015    97.018    42.082   113.497   240.674   117.386     0.207     0.025     0.000     0.000     0.023    81.890     0.056     0.039 .00000E+00 0.000E+00 0.000E+00 0.000E+00 0.000E+00 0.000E+00
BIGSUB    2        0    3.22328E+01   258.500     0.000    39.773    39.672   119.074    98.600    67.734   114.547   239.576   138.073     0.568     0.070     0.001     0.001     0.056    54.026     0.047     0.041 .00000E+00 0.000E+00 0.000E+00 0.000E+00 0.000E+00 0.000E+00
BIGSUB    3        0    3.18344E+01   258.500     0.000    39.801    39.697   118.964    90.271    52.515   105.489   238.996   134.095     0.119     0.015     0.001     0.000     0.014    78.009     0.058     0.038 .00000E+00 0.000E+00 0.000E+00 0.000E+00 0.000E+00 0.000E+00
BIGSUB    1        0    4.17227E+01    79.600     0.000    35.093    31.714   115.250    25.218     3.335    94.692   129.423     8.109     0.014     0.002     0.000     0.000     0.001    27.805     0.021     0.019 .00000E+00 0.000E+00 0.000E+00 0.000E+00 0.000E+00 0.000E+00
BIGSUB    2        0    4.22328E+01    79.600     0.000    35.218    31.817   115.245    27.262     7.966    95.978   127.127    16.709     0.032     0.004     0.000     0.000     0.003    19.529     0.018     0.021 .00000E+00 0.000E+00 0.000E+00 0.000E+00 0.000E+00 0.000E+00
BIGSUB    3        0    4.18344E+01    79.600     0.000    35.254    31.846   115.228    23.818     5.126    88.081   123.485    11.920     0.007     0.001     0.000     0.000     0.001    26.936     0.021     0.018 .00000E+00 0.000E+00 0.000E+00 0.000E+00 0.000E+00 0.000E+00
BIGSUB    1        0    5.17227E+01    41.000     0.000    47.752    36.890   108.974     3.319     0.637    59.476    70.211     2.545     0.000     0.000     0.000     0.000     0.000     6.649     0.004     0.006 .00000E+00 0.000E+00 0.000E+00 0.000E+00 0.000E+00 0.000E+00
BIGSUB    2        0    5.22328E+01    41.000     0.000    47.915    37.025   108.915     3.669     2.092    60.904    71.228     6.667     0.001     0.000     0.000     0.000     0.000     4.714     0.003     0.007 .00000E+00 0.000E+00 0.000E+00 0.000E+00 0.000E+00 0.000E+00
BIGSUB    3        0    5.18344E+01    41.000     0.000    47.962    36.999   108.875     2.901     1.230    55.404    66.287     4.286     0.000     0.000     0.000     0.000     0.000     6.442     0.004     0.006 .00000E+00 0.000E+00 0.000E+00 0.000E+00 0.000E+00 0.000E+00
BIGSUB    1        0    6.17227E+01    23.600     0.000    40.656    27.433   103.411     0.000     0.018    27.769    32.215     0.101     0.000     0.000     0.000     0.000     0.000     1.682     0.000     0.001 .00000E+00 0.000E+00 0.000E+00 0.000E+00 0.000E+00 0.000E+00
BIGSUB    2        0    6.22328E+01    23.600     0.000    40.840    27.635   103.504     0.000     0.065    28.627    32.784     0.288     0.000     0.000     0.000     0.000     0.000     1.287     0.000     0.001 .00000E+00 0.000E+00 0.000E+00 0.000E+00 0.000E+00 0.000E+00
BIGSUB    3        0    6.18344E+01    23.600     0.000    40.893    27.481   103.250     0.000     0.037    25.846    30.116     0.179     0.000     0.000     0.000     0.000     0.000     1.676     0.000     0.001 .00000E+00 0.000E+00 0.000E+00 0.000E+00 0.000E+00 0.000E+00
BIGSUB    1        0    7.17227E+01     6.900     0.000    53.636    17.821    92.490     0.000     0.000    11.619    13.856     0.000     0.000     0.000     0.000     0.000     0.000     0.034     0.000     0.000 .00000E+00 0.000E+00 0.000E+00 0.000E+00 0.000E+00 0.000E+00
BIGSUB    2        0    7.22328E+01     6.900     0.000    53.846    17.941    92.463     0.000     0.000    11.635    13.914     0.000     0.000     0.000     0.000     0.000     0.000     0.026     0.000     0.000 .00000E+00 0.000E+00 0.000E+00 0.000E+00 0.000E+00 0.000E+00
BIGSUB    3        0    7.18344E+01     6.900     0.000    53.907    17.815    92.335     0.000     0.000    10.337    12.422     0.000     0.000     0.000     0.000     0.000     0.000     0.034     0.000     0.000 .00000E+00 0.000E+00 0.000E+00 0.000E+00 0.000E+00 0.000E+00
BIGSUB    1        0    8.17227E+01    13.300     0.000    44.069    17.030    87.966     0.000     0.000     1.194     3.634     0.001     0.000     0.000     0.000     0.000     0.000     0.782     0.001     0.000 .00000E+00 0.000E+00 0.000E+00 0.000E+00 0.000E+00 0.000E+00
BIGSUB    2        0    8.22328E+01    13.300     0.000    44.236    16.770    88.389     0.000     0.001     1.731     4.022     0.002     0.000     0.000     0.000     0.000     0.000     0.596     0.001     0.000 .00000E+00 0.000E+00 0.000E+00 0.000E+00 0.000E+00 0.000E+00
BIGSUB    3        0    8.18344E+01    13.300     0.000    44.285    16.955    87.891     0.000     0.000     0.915     3.236     0.001     0.000     0.000     0.000     0.000     0.000     0.778     0.001     0.000 .00000E+00 0.000E+00 0.000E+00 0.000E+00 0.000E+00 0.000E+00
BIGSUB    1        0    9.17227E+01    15.700     0.000    38.217    16.454    86.029     0.000     0.024     0.120     2.494     0.093     0.000     0.000     0.000     0.000     0.000     1.153     0.001     0.000 .00000E+00 0.000E+00 0.000E+00 0.000E+00 0.000E+00 0.000E+00
BIGSUB    2        0    9.22328E+01    15.700     0.000    38.358    16.143    86.992     0.000     0.085     0.139     2.311     0.270     0.000     0.000     0.000     0.000     0.000     0.862     0.001     0.000 .00000E+00 0.000E+00 0.000E+00 0.000E+00 0.000E+00 0.000E+00
BIGSUB    3        0    9.18344E+01    15.700     0.000    38.399    16.354    86.040     0.000     0.049     0.092     2.397     0.165     0.000     0.000     0.000     0.000     0.000     1.142     0.001     0.000 .00000E+00 0.000E+00 0.000E+00 0.000E+00 0.000E+00 0.000E+00
BIGSUB    1        0   10.17227E+01    79.100     0.000    26.553    20.159   118.966     5.622     3.231     0.236    21.236     5.163     0.006     0.001     0.000     0.000     0.001    16.848     0.030     0.000 .00000E+00 0.000E+00 0.000E+00 0.000E+00 0.000E+00 0.000E+00
BIGSUB    2        0   10.22328E+01    79.100     0.000    26.621    20.190   119.317     6.696     7.805     0.441    21.054    11.754     0.014     0.002     0.001     0.000     0.001    11.863     0.022     0.000 .00000E+00 0.000E+00 0.000E+00 0.000E+00 0.000E+00 0.000E+00
BIGSUB    3        0   10.18344E+01    79.100     0.000    26.640    20.171   118.925     4.393     5.049     0.148    22.359     7.987     0.003     0.000     0.001     0.000     0.000    16.305     0.029     0.000 .00000E+00 0.000E+00 0.000E+00 0.000E+00 0.000E+00 0.000E+00
BIGSUB    1        0   11.17227E+01   122.500     0.000    15.116    15.016   119.618    47.966    19.105     4.816    59.403    68.915     0.056     0.007     0.001     0.000     0.007    34.749     0.111     0.000 .00000E+00 0.000E+00 0.000E+00 0.000E+00 0.000E+00 0.000E+00
BIGSUB    2        0   11.22328E+01   122.500     0.000    15.162    15.019   119.648    50.415    29.247     5.458    59.506    74.376     0.165     0.020     0.001     0.000     0.017    24.041     0.084     0.001 .00000E+00 0.000E+00 0.000E+00 0.000E+00 0.000E+00 0.000E+00
BIGSUB    3        0   11.18344E+01   122.500     0.000    15.176    15.063   119.596    45.184    23.370     4.111    61.686    76.182     0.026     0.003     0.001     0.000     0.004    33.528     0.110     0.000 .00000E+00 0.000E+00 0.000E+00 0.000E+00 0.000E+00 0.000E+00
BIGSUB    1        0   12.17227E+01   185.000     0.000    11.753    11.649   119.751    79.486    30.377    32.971   128.225    53.118     0.092     0.011     0.000     0.000     0.009    63.798     0.138     0.009 .00000E+00 0.000E+00 0.000E+00 0.000E+00 0.000E+00 0.000E+00
BIGSUB    2        0   12.22328E+01   185.000     0.000    11.763    11.647   119.793    82.013    48.625    34.437   127.065    67.976     0.218     0.027     0.001     0.000     0.021    42.879     0.106     0.011 .00000E+00 0.000E+00 0.000E+00 0.000E+00 0.000E+00 0.000E+00
BIGSUB    3        0   12.18344E+01   185.000     0.000    11.766    11.664   119.721    74.697    37.719    30.699   130.537    62.728     0.039     0.005     0.001     0.000     0.004    61.116     0.139     0.008 .00000E+00 0.000E+00 0.000E+00 0.000E+00 0.000E+00 0.000E+00
BIGSUB    1        0 1984.17227E+01  1470.600     0.000   389.808   271.033   119.751   511.492   252.493   468.803  1179.157   703.783    30.344     3.715     0.003     0.004     2.962   433.978     0.627     0.127 .00000E+00 0.000E+00 0.000E+00 0.000E+00 0.000E+00 0.000E+00
BIGSUB    2        0 1984.22328E+01  1470.600     0.000   391.083   271.211   119.793   523.537   385.403   480.567  1179.696   783.713    29.751     3.644     0.007     0.006     2.898   289.253     0.494     0.137 .00000E+00 0.000E+00 0.000E+00 0.000E+00 0.000E+00 0.000E+00
BIGSUB    3        0 1984.18344E+01  1470.600     0.000   391.453   271.416   119.721   476.508   306.596   435.537  1178.936   787.185    30.882     3.783     0.005     0.003     3.019   414.572     0.633     0.120 .00000E+00 0.000E+00 0.000E+00 0.000E+00 0.000E+00 0.000E+00
BIGSUB    1        0    1.17227E+01   162.300     0.000    15.104    15.104   119.785    72.218    16.591    53.409   129.725    53.053    13.357     1.635     0.000     0.001     1.291    58.112     0.090     0.016 .00000E+00 0.000E+00 0.000E+00 0.000E+00 0.000E+00 0.000E+00
BIGSUB    2        0    1.22328E+01   162.300     0.000    15.126    15.125   119.841    76.251    30.166    55.747   128.188    72.561    16.331     1.999     0.001     0.001     1.582    40.595     0.074     0.018 .00000E+00 0.000E+00 0.000E+00 0.000E+00 0.000E+00 0.000E+00
BIGSUB    3        0    1.18344E+01   162.300     0.000    15.132    15.132   119.745    68.518    22.160    50.220   130.176    64.365    15.449     1.891     0.000     0.001     1.494    56.289     0.092     0.015 .00000E+00 0.000E+00 0.000E+00 0.000E+00 0.000E+00 0.000E+00
BIGSUB    1        0    2.17227E+01   217.300     0.000    17.568    17.474   119.140    88.189    41.530    57.963   173.193   149.854    12.864     1.574     0.000     0.001     1.258    71.805     0.085     0.016 .00000E+00 0.000E+00 0.000E+00 0.000E+00 0.000E+00 0.000E+00
BIGSUB    2        0    2.22328E+01   217.300     0.000    17.621    17.527   119.161    90.538    62.652    60.543   173.100   163.137     7.958     0.974     0.001     0.001     0.784    47.928     0.066     0.018 .00000E+00 0.000E+00 0.000E+00 0.000E+00 0.000E+00 0.000E+00
BIGSUB    3        0    2.18344E+01   217.300     0.000    17.636    17.542   119.122    82.593    50.103    54.650   175.172   166.215    11.787     1.443     0.000     0.001     1.156    68.640     0.085     0.015 .00000E+00 0.000E+00 0.000E+00 0.000E+00 0.000E+00 0.000E+00
BIGSUB    1        0    3.17227E+01   192.100     0.000    33.009    30.804   118.203    74.926    24.738    73.963   161.863    63.072     1.771     0.217     0.000     0.000     0.179    60.566     0.058     0.018 .00000E+00 0.000E+00 0.000E+00 0.000E+00 0.000E+00 0.000E+00
BIGSUB    2        0    3.22328E+01   192.100     0.000    33.081    30.875   118.274    77.013    42.949    76.738   163.289    88.569     1.560     0.191     0.001     0.000     0.155    40.901     0.046     0.020 .00000E+00 0.000E+00 0.000E+00 0.000E+00 0.000E+00 0.000E+00
BIGSUB    3        0    3.18344E+01   192.100     0.000    33.102    30.895   118.153    70.070    32.284    69.558   162.353    77.380     1.663     0.204     0.001     0.000     0.169    58.073     0.059     0.017 .00000E+00 0.000E+00 0.000E+00 0.000E+00 0.000E+00 0.000E+00
BIGSUB    1        0    4.17227E+01    68.200     0.000    37.221    34.528   115.818    17.419     1.233    66.832    94.052     2.863     0.018     0.002     0.000     0.000     0.002    23.206     0.020     0.012 .00000E+00 0.000E+00 0.000E+00 0.000E+00 0.000E+00 0.000E+00
BIGSUB    2        0    4.22328E+01    68.200     0.000    37.376    34.667   115.819    19.495     3.761    69.232    92.481     7.869     0.033     0.004     0.000     0.000     0.003    16.599     0.017     0.013 .00000E+00 0.000E+00 0.000E+00 0.000E+00 0.000E+00 0.000E+00
BIGSUB    3        0    4.18344E+01    68.200     0.000    37.421    34.685   115.727    16.604     2.111    62.726    90.043     4.947     0.011     0.001     0.000     0.000     0.001    22.595     0.021     0.011 .00000E+00 0.000E+00 0.000E+00 0.000E+00 0.000E+00 0.000E+00
BIGSUB    1        0    5.17227E+01    23.500     0.000    47.684    30.649   106.534     0.000     0.102    42.837    47.810     0.292     0.000     0.000     0.000     0.000     0.000     2.227     0.000     0.004 .00000E+00 0.000E+00 0.000E+00 0.000E+00 0.000E+00 0.000E+00
BIGSUB    2        0    5.22328E+01    23.500     0.000    47.914    30.814   106.623     0.000     0.363    44.640    49.410     0.851     0.000     0.000     0.000     0.000     0.000     1.657     0.000     0.004 .00000E+00 0.000E+00 0.000E+00 0.000E+00 0.000E+00 0.000E+00
BIGSUB    3        0    5.18344E+01    23.500     0.000    47.981    30.658   106.347     0.000     0.208    40.220    45.113     0.521     0.000     0.000     0.000     0.000     0.000     2.203     0.000     0.004 .00000E+00 0.000E+00 0.000E+00 0.000E+00 0.000E+00 0.000E+00
BIGSUB    1        0    6.17227E+01    15.300     0.000    49.793    24.531    96.625     0.000     0.000    19.465    22.298     0.000     0.000     0.000     0.000     0.000     0.000     0.752     0.000     0.001 .00000E+00 0.000E+00 0.000E+00 0.000E+00 0.000E+00 0.000E+00
BIGSUB    2        0    6.22328E+01    15.300     0.000    50.008    24.699    96.701     0.000     0.000    20.334    23.079     0.000     0.000     0.000     0.000     0.000     0.000     0.579     0.000     0.001 .00000E+00 0.000E+00 0.000E+00 0.000E+00 0.000E+00 0.000E+00
BIGSUB    3        0    6.18344E+01    15.300     0.000    50.070    24.510    96.461     0.000     0.000    18.274    20.978     0.000     0.000     0.000     0.000     0.000     0.000     0.750     0.000     0.001 .00000E+00 0.000E+00 0.000E+00 0.000E+00 0.000E+00 0.000E+00
BIGSUB    1        0    7.17227E+01     7.500     0.000    49.853    16.014    88.084     0.000     0.000     6.153     7.853     0.000     0.000     0.000     0.000     0.000     0.000     0.039     0.000     0.000 .00000E+00 0.000E+00 0.000E+00 0.000E+00 0.000E+00 0.000E+00
BIGSUB    2        0    7.22328E+01     7.500     0.000    50.059    16.079    88.101     0.000     0.000     6.714     8.473     0.000     0.000     0.000     0.000     0.000     0.000     0.030     0.000     0.000 .00000E+00 0.000E+00 0.000E+00 0.000E+00 0.000E+00 0.000E+00
BIGSUB    3        0    7.18344E+01     7.500     0.000    50.119    16.003    87.931     0.000     0.000     5.529     7.127     0.000     0.000     0.000     0.000     0.000     0.000     0.039     0.000     0.000 .00000E+00 0.000E+00 0.000E+00 0.000E+00 0.000E+00 0.000E+00
BIGSUB    1        0    8.17227E+01    13.100     0.000    45.126    15.692    84.603     0.000     0.043     0.424     2.446     0.322     0.000     0.000     0.000     0.000     0.000     0.733     0.001     0.000 .00000E+00 0.000E+00 0.000E+00 0.000E+00 0.000E+00 0.000E+00
BIGSUB    2        0    8.22328E+01    13.100     0.000    45.292    15.534    84.897     0.000     0.151     0.533     2.521     0.893     0.000     0.000     0.001     0.000     0.000     0.538     0.001     0.000 .00000E+00 0.000E+00 0.000E+00 0.000E+00 0.000E+00 0.000E+00
BIGSUB    3        0    8.18344E+01    13.100     0.000    45.340    15.635    84.476     0.000     0.087     0.334     2.314     0.565     0.000     0.000     0.000     0.000     0.000     0.722     0.001     0.000 .00000E+00 0.000E+00 0.000E+00 0.000E+00 0.000E+00 0.000E+00
BIGSUB    1        0    9.17227E+01    28.200     0.000    45.138    19.853    89.751     0.000     0.035     0.007     3.961     0.123     0.000     0.000     0.000     0.000     0.000     3.019     0.002     0.000 .00000E+00 0.000E+00 0.000E+00 0.000E+00 0.000E+00 0.000E+00
BIGSUB    2        0    9.22328E+01    28.200     0.000    45.263    19.520    91.044     0.000     0.125     0.013     3.365     0.360     0.000     0.000     0.000     0.000     0.000     2.290     0.001     0.000 .00000E+00 0.000E+00 0.000E+00 0.000E+00 0.000E+00 0.000E+00
BIGSUB    3        0    9.18344E+01    28.200     0.000    45.299    19.717    89.733     0.000     0.071     0.003     3.925     0.220     0.000     0.000     0.000     0.000     0.000     3.006     0.002     0.000 .00000E+00 0.000E+00 0.000E+00 0.000E+00 0.000E+00 0.000E+00
BIGSUB    1        0   10.17227E+01    36.600     0.000    33.026    16.890   102.542     0.000     1.853     0.000     6.959     9.774     0.086     0.011     0.001     0.000     0.009     4.417     0.001     0.000 .00000E+00 0.000E+00 0.000E+00 0.000E+00 0.000E+00 0.000E+00
BIGSUB    2        0   10.22328E+01    36.600     0.000    33.123    17.159   103.280     0.000     3.620     0.000     7.515    15.535     0.092     0.011     0.001     0.000     0.009     3.178     0.001     0.000 .00000E+00 0.000E+00 0.000E+00 0.000E+00 0.000E+00 0.000E+00
BIGSUB    3        0   10.18344E+01    36.600     0.000    33.151    16.833   102.008     0.000     2.572     0.000     7.550    12.639     0.082     0.010     0.001     0.000     0.008     4.331     0.001     0.000 .00000E+00 0.000E+00 0.000E+00 0.000E+00 0.000E+00 0.000E+00
BIGSUB    1        0   11.17227E+01    60.700     0.000    23.583    19.414   118.979     4.654     6.631     0.156    21.130    20.983     0.237     0.029     0.001     0.000     0.024    13.844     0.035     0.000 .00000E+00 0.000E+00 0.000E+00 0.000E+00 0.000E+00 0.000E+00
BIGSUB    2        0   11.22328E+01    60.700     0.000    23.612    19.139   117.862     6.241    11.706     0.427    21.801    28.606     0.277     0.034     0.002     0.000     0.027     9.147     0.024     0.000 .00000E+00 0.000E+00 0.000E+00 0.000E+00 0.000E+00 0.000E+00
BIGSUB    3        0   11.18344E+01    60.700     0.000    23.621    19.256   118.353     3.565     8.607     0.065    22.288    25.358     0.222     0.027     0.001     0.000     0.023    13.148     0.033     0.000 .00000E+00 0.000E+00 0.000E+00 0.000E+00 0.000E+00 0.000E+00
BIGSUB    1        0   12.17227E+01   162.600     0.000    13.235    13.126   119.021    69.845    22.938     8.611    84.220    84.023     0.728     0.089     0.001     0.000     0.075    52.152     0.174     0.002 .00000E+00 0.000E+00 0.000E+00 0.000E+00 0.000E+00 0.000E+00
BIGSUB    2        0   12.22328E+01   162.600     0.000    13.247    13.098   119.100    72.006    37.398     9.309    83.103    98.655     0.917     0.113     0.001     0.000     0.090    35.848     0.131     0.002 .00000E+00 0.000E+00 0.000E+00 0.000E+00 0.000E+00 0.000E+00
BIGSUB    3        0   12.18344E+01   162.600     0.000    13.251    13.130   118.974    65.464    28.932     7.545    87.215    95.856     0.695     0.085     0.001     0.000     0.072    50.259     0.172     0.001 .00000E+00 0.000E+00 0.000E+00 0.000E+00 0.000E+00 0.000E+00
BIGSUB    1        0 1985.17227E+01   987.400     0.000   410.338   254.078   119.021   327.251   115.694   329.818   755.510   384.360    29.061     3.557     0.003     0.002     2.839   290.872     0.465     0.068 .00000E+00 0.000E+00 0.000E+00 0.000E+00 0.000E+00 0.000E+00
BIGSUB    2        0 1985.22328E+01   987.400     0.000   411.721   254.236   119.100   341.544   192.892   344.231   756.325   477.036    27.169     3.327     0.008     0.003     2.652   199.290     0.360     0.075 .00000E+00 0.000E+00 0.000E+00 0.000E+00 0.000E+00 0.000E+00
BIGSUB    3        0 1985.18344E+01   987.400     0.000   412.123   253.996   118.974   306.816   147.135   309.122   754.253   448.064    29.908     3.662     0.005     0.002     2.924   280.055     0.466     0.064 .00000E+00 0.000E+00 0.000E+00 0.000E+00 0.000E+00 0.000E+00
BIGSUB    1        0    1.17227E+01   296.100     0.000    17.235    17.235   119.047   123.453    57.053    42.270   197.992   208.770    27.624     3.380     0.000     0.002     2.687    97.620     0.180     0.016 .00000E+00 0.000E+00 0.000E+00 0.000E+00 0.000E+00 0.000E+00
BIGSUB    2        0    1.22328E+01   296.100     0.000    17.231    17.231   119.078   126.332    87.155    44.037   197.227   226.066    25.731     3.149     0.001     0.003     2.506    64.936     0.139     0.018 .00000E+00 0.000E+00 0.000E+00 0.000E+00 0.000E+00 0.000E+00
BIGSUB    3        0    1.18344E+01   296.100     0.000    17.230    17.230   119.028   115.567    69.323    39.444   203.002   231.119    28.568     3.496     0.001     0.002     2.782    93.257     0.181     0.015 .00000E+00 0.000E+00 0.000E+00 0.000E+00 0.000E+00 0.000E+00
BIGSUB    1        0    2.17227E+01   312.300     0.000    23.578    23.326   119.167   115.794    80.008    73.524   246.894   304.905     2.315     0.283     0.000     0.001     0.243    91.553     0.093     0.031 .00000E+00 0.000E+00 0.000E+00 0.000E+00 0.000E+00 0.000E+00
BIGSUB    2        0    2.22328E+01   312.300     0.000    23.658    23.405   119.236   115.640   113.222    75.274   249.311   303.613     3.463     0.425     0.001     0.002     0.347    58.948     0.073     0.033 .00000E+00 0.000E+00 0.000E+00 0.000E+00 0.000E+00 0.000E+00
BIGSUB    3        0    2.18344E+01   312.300     0.000    23.681    23.428   119.111   107.219    93.587    68.669   250.586   327.623     2.186     0.268     0.001     0.001     0.231    86.642     0.094     0.029 .00000E+00 0.000E+00 0.000E+00 0.000E+00 0.000E+00 0.000E+00
BIGSUB    1        0    3.17227E+01   182.800     0.000    37.988    36.754   116.198    73.679    14.091    98.270   182.132    44.504     0.060     0.007     0.000     0.000     0.007    66.881     0.052     0.031 .00000E+00 0.000E+00 0.000E+00 0.000E+00 0.000E+00 0.000E+00
BIGSUB    2        0    3.22328E+01   182.800     0.000    38.095    36.858   116.198    77.083    30.022    99.784   178.326    71.872     0.161     0.020     0.001     0.000     0.016    45.563     0.045     0.033 .00000E+00 0.000E+00 0.000E+00 0.000E+00 0.000E+00 0.000E+00
BIGSUB    3        0    3.18344E+01   182.800     0.000    38.126    36.888   116.190    69.303    20.431    91.533   178.934    58.151     0.036     0.005     0.000     0.000     0.005    64.277     0.054     0.029 .00000E+00 0.000E+00 0.000E+00 0.000E+00 0.000E+00 0.000E+00
BIGSUB    1        0    4.17227E+01   117.500     0.000    43.327    43.094   118.228    30.174    12.497    80.831   123.839    45.555     0.033     0.004     0.000     0.000     0.005    27.344     0.020     0.015 .00000E+00 0.000E+00 0.000E+00 0.000E+00 0.000E+00 0.000E+00
BIGSUB    2        0    4.22328E+01   117.500     0.000    43.478    43.240   118.296    31.034    20.857    82.644   125.438    54.671     0.119     0.015     0.001     0.000     0.013    18.696     0.016     0.017 .00000E+00 0.000E+00 0.000E+00 0.000E+00 0.000E+00 0.000E+00
BIGSUB    3        0    4.18344E+01   117.500     0.000    43.522    43.281   118.162    27.838    16.086    75.408   120.718    52.424     0.023     0.003     0.001     0.000     0.004    26.271     0.020     0.015 .00000E+00 0.000E+00 0.000E+00 0.000E+00 0.000E+00 0.000E+00
BIGSUB    1        0    5.17227E+01    35.300     0.000    51.081    34.617   110.090     3.156     0.520    51.944    64.264     0.525     0.012     0.002     0.000     0.000     0.001     8.760     0.007     0.005 .00000E+00 0.000E+00 0.000E+00 0.000E+00 0.000E+00 0.000E+00
BIGSUB    2        0    5.22328E+01    35.300     0.000    51.249    34.758   110.294     3.524     1.447    53.372    63.957     1.517     0.026     0.003     0.000     0.000     0.002     6.023     0.006     0.006 .00000E+00 0.000E+00 0.000E+00 0.000E+00 0.000E+00 0.000E+00
BIGSUB    3        0    5.18344E+01    35.300     0.000    51.298    34.678   109.954     2.936     0.716    48.391    60.380     0.935     0.005     0.001     0.000     0.000     0.000     8.439     0.007     0.005 .00000E+00 0.000E+00 0.000E+00 0.000E+00 0.000E+00 0.000E+00
BIGSUB    1        0    6.17227E+01    10.100     0.000    51.084    22.723    97.210     0.000     0.000    24.759    27.893     0.000     0.000     0.000     0.000     0.000     0.000     0.705     0.000     0.001 .00000E+00 0.000E+00 0.000E+00 0.000E+00 0.000E+00 0.000E+00
BIGSUB    2        0    6.22328E+01    10.100     0.000    51.304    22.931    97.265     0.000     0.001    25.484    28.508     0.000     0.000     0.000     0.000     0.000     0.000     0.533     0.000     0.001 .00000E+00 0.000E+00 0.000E+00 0.000E+00 0.000E+00 0.000E+00
BIGSUB    3        0    6.18344E+01    10.100     0.000    51.367    22.717    97.081     0.000     0.000    23.035    26.000     0.000     0.000     0.000     0.000     0.000     0.000     0.700     0.000     0.001 .00000E+00 0.000E+00 0.000E+00 0.000E+00 0.000E+00 0.000E+00
BIGSUB    1        0    7.17227E+01    16.800     0.000    46.339    20.810    92.266     0.000     0.000     9.526    12.376     0.000     0.000     0.000     0.000     0.000     0.000     0.900     0.001     0.000 .00000E+00 0.000E+00 0.000E+00 0.000E+00 0.000E+00 0.000E+00
BIGSUB    2        0    7.22328E+01    16.800     0.000    46.540    20.923    92.423     0.000     0.000     9.871    12.564     0.000     0.000     0.000     0.000     0.000     0.000     0.692     0.001     0.000 .00000E+00 0.000E+00 0.000E+00 0.000E+00 0.000E+00 0.000E+00
BIGSUB    3        0    7.18344E+01    16.800     0.000    46.598    20.835    92.115     0.000     0.000     8.588    11.303     0.000     0.000     0.000     0.000     0.000     0.000     0.897     0.001     0.000 .00000E+00 0.000E+00 0.000E+00 0.000E+00 0.000E+00 0.000E+00
BIGSUB    1        0    8.17227E+01    23.100     0.000    58.083    22.121    90.019     0.000     0.834     0.719     5.423     6.130     0.002     0.000     0.001     0.000     0.000     2.401     0.001     0.000 .00000E+00 0.000E+00 0.000E+00 0.000E+00 0.000E+00 0.000E+00
BIGSUB    2        0    8.22328E+01    23.100     0.000    58.295    21.405    90.501     0.000     2.001     0.913     6.045    12.469     0.006     0.001     0.002     0.000     0.001     1.625     0.001     0.000 .00000E+00 0.000E+00 0.000E+00 0.000E+00 0.000E+00 0.000E+00
BIGSUB    3        0    8.18344E+01    23.100     0.000    58.357    21.831    89.776     0.000     1.305     0.504     5.490     8.988     0.001     0.000     0.001     0.000     0.000     2.313     0.001     0.000 .00000E+00 0.000E+00 0.000E+00 0.000E+00 0.000E+00 0.000E+00
BIGSUB    1        0    9.17227E+01    25.000     0.000    41.476    20.639    91.643     0.000     0.125     0.025     3.792     0.520     0.000     0.000     0.000     0.000     0.000     2.582     0.001     0.000 .00000E+00 0.000E+00 0.000E+00 0.000E+00 0.000E+00 0.000E+00
BIGSUB    2        0    9.22328E+01    25.000     0.000    41.626    20.580    92.533     0.000     0.447     0.054     3.506     1.512     0.000     0.000     0.000     0.000     0.000     1.917     0.001     0.000 .00000E+00 0.000E+00 0.000E+00 0.000E+00 0.000E+00 0.000E+00
BIGSUB    3        0    9.18344E+01    25.000     0.000    41.670    20.476    91.459     0.000     0.255     0.012     3.809     0.927     0.000     0.000     0.000     0.000     0.000     2.554     0.001     0.000 .00000E+00 0.000E+00 0.000E+00 0.000E+00 0.000E+00 0.000E+00
BIGSUB    1        0   10.17227E+01    37.100     0.000    29.324    19.491   103.662     0.000     0.607     0.001     6.174     1.816     0.001     0.000     0.000     0.000     0.000     4.753     0.001     0.000 .00000E+00 0.000E+00 0.000E+00 0.000E+00 0.000E+00 0.000E+00
BIGSUB    2        0   10.22328E+01    37.100     0.000    29.400    19.855   104.473     0.000     1.675     0.002     5.986     4.402     0.002     0.000     0.001     0.000     0.000     3.475     0.001     0.000 .00000E+00 0.000E+00 0.000E+00 0.000E+00 0.000E+00 0.000E+00
BIGSUB    3        0   10.18344E+01    37.100     0.000    29.422    19.403   103.221     0.000     1.035     0.000     6.473     2.905     0.000     0.000     0.000     0.000     0.000     4.681     0.001     0.000 .00000E+00 0.000E+00 0.000E+00 0.000E+00 0.000E+00 0.000E+00
BIGSUB    1        0   11.17227E+01    61.500     0.000    20.497    18.784   117.145     8.523     5.047     1.270    22.835    12.302     0.017     0.002     0.000     0.000     0.002    15.913     0.045     0.000 .00000E+00 0.000E+00 0.000E+00 0.000E+00 0.000E+00 0.000E+00
BIGSUB    2        0   11.22328E+01    61.500     0.000    20.506    18.722   117.222     9.847     9.337     1.708    22.686    18.663     0.052     0.006     0.001     0.000     0.005    11.017     0.032     0.000 .00000E+00 0.000E+00 0.000E+00 0.000E+00 0.000E+00 0.000E+00
BIGSUB    3        0   11.18344E+01    61.500     0.000    20.508    18.767   117.156     7.000     6.740     0.996    23.595    15.564     0.009     0.001     0.001     0.000     0.001    15.299     0.043     0.000 .00000E+00 0.000E+00 0.000E+00 0.000E+00 0.000E+00 0.000E+00
BIGSUB    1        0   12.17227E+01   148.700     0.000    15.290    15.179   119.784    59.857    21.619     7.902    75.056    65.091     0.063     0.008     0.001     0.000     0.007    44.952     0.146     0.001 .00000E+00 0.000E+00 0.000E+00 0.000E+00 0.000E+00 0.000E+00
BIGSUB    2        0   12.22328E+01   148.700     0.000    15.295    15.141   119.839    62.396    34.716     8.454    74.530    75.667     0.191     0.023     0.002     0.000     0.019    30.751     0.109     0.001 .00000E+00 0.000E+00 0.000E+00 0.000E+00 0.000E+00 0.000E+00
BIGSUB    3        0   12.18344E+01   148.700     0.000    15.296    15.172   119.745    56.409    27.020     6.942    77.774    73.987     0.033     0.004     0.001     0.000     0.004    43.276     0.144     0.001 .00000E+00 0.000E+00 0.000E+00 0.000E+00 0.000E+00 0.000E+00
BIGSUB    1        0 1986.17227E+01  1266.300     0.000   435.302   294.772   119.784   414.635   192.401   391.041   968.670   690.118    30.127     3.686     0.004     0.003     2.952   364.365     0.546     0.101 .00000E+00 0.000E+00 0.000E+00 0.000E+00 0.000E+00 0.000E+00
BIGSUB    2        0 1986.22328E+01  1266.300     0.000   436.677   295.049   119.839   425.856   300.880   401.596   968.084   770.452    29.752     3.642     0.010     0.005     2.909   244.176     0.423     0.108 .00000E+00 0.000E+00 0.000E+00 0.000E+00 0.000E+00 0.000E+00
BIGSUB    3        0 1986.18344E+01  1266.300     0.000   437.077   294.706   119.745   386.273   236.498   363.524   968.064   772.624    30.862     3.777     0.006     0.003     3.027   348.605     0.547     0.094 .00000E+00 0.000E+00 0.000E+00 0.000E+00 0.000E+00 0.000E+00
BIGSUB    1        0    1.17227E+01   265.300     0.000    20.337    20.336   118.539   107.292    52.688    40.328   178.730   208.839    27.021     3.305     0.001     0.002     2.629    84.651     0.163     0.014 .00000E+00 0.000E+00 0.000E+00 0.000E+00 0.000E+00 0.000E+00
BIGSUB    2        0    1.22328E+01   265.300     0.000    20.352    20.352   118.633   110.182    77.968    41.964   177.898   218.904    24.657     3.016     0.002     0.002     2.403    56.858     0.127     0.016 .00000E+00 0.000E+00 0.000E+00 0.000E+00 0.000E+00 0.000E+00
BIGSUB    3        0    1.18344E+01   265.300     0.000    20.356    20.356   118.481   100.615    63.204    37.668   182.940   228.487    27.921     3.415     0.001     0.002     2.719    81.080     0.164     0.013 .00000E+00 0.000E+00 0.000E+00 0.000E+00 0.000E+00 0.000E+00
BIGSUB    1        0    2.17227E+01   224.900     0.000    23.478    23.478   119.277    79.656    56.475    66.314   190.913   277.949     2.264     0.277     0.000     0.001     0.236    66.414     0.077     0.025 .00000E+00 0.000E+00 0.000E+00 0.000E+00 0.000E+00 0.000E+00
BIGSUB    2        0    2.22328E+01   224.900     0.000    23.519    23.519   119.323    80.183    78.869    67.971   191.631   254.779     3.401     0.417     0.001     0.001     0.340    43.028     0.060     0.027 .00000E+00 0.000E+00 0.000E+00 0.000E+00 0.000E+00 0.000E+00
BIGSUB    3        0    2.18344E+01   224.900     0.000    23.531    23.531   119.238    73.871    65.355    61.959   191.868   290.403     2.211     0.270     0.001     0.001     0.232    62.961     0.078     0.024 .00000E+00 0.000E+00 0.000E+00 0.000E+00 0.000E+00 0.000E+00
BIGSUB    1        0    3.17227E+01    92.200     0.000    40.747    34.604   110.289    32.176     6.678    73.110   114.128    19.147     0.018     0.002     0.000     0.000     0.003    31.920     0.034     0.019 .00000E+00 0.000E+00 0.000E+00 0.000E+00 0.000E+00 0.000E+00
BIGSUB    2        0    3.22328E+01    92.200     0.000    40.820    34.718   110.374    33.718    13.630    74.804   112.853    31.297     0.057     0.007     0.000     0.000     0.007    21.932     0.028     0.020 .00000E+00 0.000E+00 0.000E+00 0.000E+00 0.000E+00 0.000E+00
BIGSUB    3        0    3.18344E+01    92.200     0.000    40.842    34.685   110.274    30.236     9.477    68.272   110.759    25.136     0.008     0.001     0.000     0.000     0.002    30.753     0.035     0.018 .00000E+00 0.000E+00 0.000E+00 0.000E+00 0.000E+00 0.000E+00
BIGSUB    1        0    4.17227E+01    34.800     0.000    44.213    30.417   105.312     1.226     3.814    46.098    56.556    19.607     0.011     0.001     0.000     0.000     0.002     4.336     0.002     0.006 .00000E+00 0.000E+00 0.000E+00 0.000E+00 0.000E+00 0.000E+00
BIGSUB    2        0    4.22328E+01    34.800     0.000    44.380    30.404   104.812     1.399     5.790    47.380    58.324    23.289     0.041     0.005     0.001     0.000     0.005     2.781     0.001     0.006 .00000E+00 0.000E+00 0.000E+00 0.000E+00 0.000E+00 0.000E+00
BIGSUB    3        0    4.18344E+01    34.800     0.000    44.428    30.395   105.003     0.977     4.617    43.040    53.908    22.470     0.004     0.001     0.000     0.000     0.001     4.097     0.002     0.006 .00000E+00 0.000E+00 0.000E+00 0.000E+00 0.000E+00 0.000E+00
BIGSUB    1        0    5.17227E+01    14.400     0.000    54.115    22.559    96.117     0.000     0.015    22.895    25.923     0.034     0.000     0.000     0.000     0.000     0.000     1.021     0.000     0.001 .00000E+00 0.000E+00 0.000E+00 0.000E+00 0.000E+00 0.000E+00
BIGSUB    2        0    5.22328E+01    14.400     0.000    54.319    22.633    95.744     0.000     0.053    23.589    26.473     0.101     0.000     0.000     0.000     0.000     0.000     0.781     0.000     0.001 .00000E+00 0.000E+00 0.000E+00 0.000E+00 0.000E+00 0.000E+00
BIGSUB    3        0    5.18344E+01    14.400     0.000    54.379    22.538    95.816     0.000     0.030    21.348    24.256     0.062     0.000     0.000     0.000     0.000     0.000     1.019     0.000     0.001 .00000E+00 0.000E+00 0.000E+00 0.000E+00 0.000E+00 0.000E+00
BIGSUB    1        0    6.17227E+01     8.300     0.000    50.867    15.945    88.383     0.000     0.000     7.973     9.561     0.000     0.000     0.000     0.000     0.000     0.000     0.082     0.000     0.000 .00000E+00 0.000E+00 0.000E+00 0.000E+00 0.000E+00 0.000E+00
BIGSUB    2        0    6.22328E+01     8.300     0.000    51.077    15.981    87.995     0.000     0.000     8.288     9.901     0.000     0.000     0.000     0.000     0.000     0.000     0.063     0.000     0.000 .00000E+00 0.000E+00 0.000E+00 0.000E+00 0.000E+00 0.000E+00
BIGSUB    3        0    6.18344E+01     8.300     0.000    51.138    15.941    88.086     0.000     0.000     7.168     8.654     0.000     0.000     0.000     0.000     0.000     0.000     0.082     0.000     0.000 .00000E+00 0.000E+00 0.000E+00 0.000E+00 0.000E+00 0.000E+00
BIGSUB    1        0    7.17227E+01    10.300     0.000    55.953    18.540    79.844     0.000     0.000     0.619     2.106     0.000     0.000     0.000     0.000     0.000     0.000     0.306     0.000     0.000 .00000E+00 0.000E+00 0.000E+00 0.000E+00 0.000E+00 0.000E+00
BIGSUB    2        0    7.22328E+01    10.300     0.000    56.167    17.607    80.470     0.000     0.000     0.859     2.297     0.000     0.000     0.000     0.000     0.000     0.000     0.224     0.000     0.000 .00000E+00 0.000E+00 0.000E+00 0.000E+00 0.000E+00 0.000E+00
BIGSUB    3        0    7.18344E+01    10.300     0.000    56.229    18.281    79.813     0.000     0.000     0.467     1.868     0.000     0.000     0.000     0.000     0.000     0.000     0.300     0.000     0.000 .00000E+00 0.000E+00 0.000E+00 0.000E+00 0.000E+00 0.000E+00
BIGSUB    1        0    8.17227E+01    14.900     0.000    57.427    17.756    75.980     0.000     0.000     0.010     1.826     0.000     0.000     0.000     0.000     0.000     0.000     0.938     0.002     0.000 .00000E+00 0.000E+00 0.000E+00 0.000E+00 0.000E+00 0.000E+00
BIGSUB    2        0    8.22328E+01    14.900     0.000    57.594    17.067    77.534     0.000     0.001     0.020     1.640     0.001     0.000     0.000     0.000     0.000     0.000     0.716     0.001     0.000 .00000E+00 0.000E+00 0.000E+00 0.000E+00 0.000E+00 0.000E+00
BIGSUB    3        0    8.18344E+01    14.900     0.000    57.642    17.540    76.167     0.000     0.000     0.004     1.759     0.001     0.000     0.000     0.000     0.000     0.000     0.936     0.002     0.000 .00000E+00 0.000E+00 0.000E+00 0.000E+00 0.000E+00 0.000E+00
BIGSUB    1        0    9.17227E+01    23.500     0.000    52.906    19.622    77.678     0.000     0.036     0.000     2.765     0.196     0.000     0.000     0.000     0.000     0.000     2.098     0.002     0.000 .00000E+00 0.000E+00 0.000E+00 0.000E+00 0.000E+00 0.000E+00
BIGSUB    2        0    9.22328E+01    23.500     0.000    53.042    19.186    80.095     0.000     0.130     0.000     2.365     0.565     0.000     0.000     0.000     0.000     0.000     1.586     0.002     0.000 .00000E+00 0.000E+00 0.000E+00 0.000E+00 0.000E+00 0.000E+00
BIGSUB    3        0    9.18344E+01    23.500     0.000    53.082    19.472    77.988     0.000     0.074     0.000     2.748     0.349     0.000     0.000     0.000     0.000     0.000     2.086     0.002     0.000 .00000E+00 0.000E+00 0.000E+00 0.000E+00 0.000E+00 0.000E+00
BIGSUB    1        0   10.17227E+01    34.400     0.000    31.852    19.535    87.689     0.000     0.496     0.000     5.399     1.522     0.000     0.000     0.000     0.000     0.000     4.421     0.001     0.000 .00000E+00 0.000E+00 0.000E+00 0.000E+00 0.000E+00 0.000E+00
BIGSUB    2        0   10.22328E+01    34.400     0.000    31.930    19.743    89.929     0.000     1.697     0.000     5.366     4.370     0.001     0.000     0.001     0.000     0.000     3.173     0.001     0.000 .00000E+00 0.000E+00 0.000E+00 0.000E+00 0.000E+00 0.000E+00
BIGSUB    3        0   10.18344E+01    34.400     0.000    31.953    19.393    87.748     0.000     0.978     0.000     5.759     2.685     0.000     0.000     0.000     0.000     0.000     4.332     0.001     0.000 .00000E+00 0.000E+00 0.000E+00 0.000E+00 0.000E+00 0.000E+00
BIGSUB    1        0   11.17227E+01    82.700     0.000    21.211    19.098   119.075     8.448     2.310     0.073    22.863     7.580     0.004     0.000     0.000     0.000     0.001    20.133     0.056     0.000 .00000E+00 0.000E+00 0.000E+00 0.000E+00 0.000E+00 0.000E+00
BIGSUB    2        0   11.22328E+01    82.700     0.000    21.249    19.260   119.082    12.257     6.114     0.142    21.506    15.896     0.012     0.002     0.001     0.000     0.001    14.892     0.046     0.000 .00000E+00 0.000E+00 0.000E+00 0.000E+00 0.000E+00 0.000E+00
BIGSUB    3        0   11.18344E+01    82.700     0.000    21.260    19.078   119.064     7.412     3.817     0.029    23.927    11.211     0.002     0.000     0.001     0.000     0.000    19.758     0.056     0.000 .00000E+00 0.000E+00 0.000E+00 0.000E+00 0.000E+00 0.000E+00
BIGSUB    1        0   12.17227E+01   113.700     0.000    14.431    14.362   119.461    50.783     6.598    10.883    59.928    22.257     0.011     0.001     0.000     0.000     0.002    41.994     0.146     0.002 .00000E+00 0.000E+00 0.000E+00 0.000E+00 0.000E+00 0.000E+00
BIGSUB    2        0   12.22328E+01   113.700     0.000    14.456    14.359   119.467    54.891    14.151    12.861    57.742    37.212     0.038     0.005     0.001     0.000     0.004    30.234     0.115     0.003 .00000E+00 0.000E+00 0.000E+00 0.000E+00 0.000E+00 0.000E+00
BIGSUB    3        0   12.18344E+01   113.700     0.000    14.463    14.392   119.460    48.619     9.681     9.876    61.007    29.524     0.005     0.001     0.000     0.000     0.001    41.028     0.147     0.002 .00000E+00 0.000E+00 0.000E+00 0.000E+00 0.000E+00 0.000E+00
BIGSUB    1        0 1987.17227E+01   919.400     0.000   467.537   256.252   119.461   279.581   129.110   268.305   670.697   557.133    29.330     3.588     0.003     0.003     2.873   258.315     0.483     0.068 .00000E+00 0.000E+00 0.000E+00 0.000E+00 0.000E+00 0.000E+00
BIGSUB    2        0 1987.22328E+01   919.400     0.000   468.905   254.830   119.467   292.631   198.403   277.878   667.996   586.413    28.207     3.452     0.006     0.004     2.760   176.268     0.381     0.075 .00000E+00 0.000E+00 0.000E+00 0.000E+00 0.000E+00 0.000E+00
BIGSUB    3        0 1987.18344E+01   919.400     0.000   469.302   255.603   119.460   261.731   157.234   249.830   669.454   610.328    30.150     3.688     0.004     0.002     2.956   248.431     0.487     0.063 .00000E+00 0.000E+00 0.000E+00 0.000E+00 0.000E+00 0.000E+00
BIGSUB    1        0    1.17227E+01   186.600     0.000    16.978    16.976   119.728    82.930    19.550    31.121   115.956    36.133    10.349     1.266     0.000     0.001     1.004    64.458     0.155     0.010 .00000E+00 0.000E+00 0.000E+00 0.000E+00 0.000E+00 0.000E+00
BIGSUB    2        0    1.22328E+01   186.600     0.000    17.010    17.009   119.739    86.853    36.378    34.221   115.964    52.988    14.139     1.729     0.001     0.001     1.374    44.458     0.119     0.011 .00000E+00 0.000E+00 0.000E+00 0.000E+00 0.000E+00 0.000E+00
BIGSUB    3        0    1.18344E+01   186.600     0.000    17.020    17.018   119.718    78.392    26.431    29.441   118.852    45.158    12.518     1.531     0.001     0.001     1.216    62.201     0.155     0.009 .00000E+00 0.000E+00 0.000E+00 0.000E+00 0.000E+00 0.000E+00
BIGSUB    1        0    2.17227E+01   190.600     0.000    25.885    25.204   119.168    64.718    47.788    56.045   161.725   148.083    16.681     2.040     0.000     0.001     1.630    56.476     0.085     0.023 .00000E+00 0.000E+00 0.000E+00 0.000E+00 0.000E+00 0.000E+00
BIGSUB    2        0    2.22328E+01   190.600     0.000    25.942    25.274   119.258    64.926    66.246    58.811   163.294   142.074    10.417     1.274     0.001     0.002     1.024    36.728     0.063     0.025 .00000E+00 0.000E+00 0.000E+00 0.000E+00 0.000E+00 0.000E+00
BIGSUB    3        0    2.18344E+01   190.600     0.000    25.959    25.266   119.172    59.905    55.286    52.757   162.974   157.107    15.331     1.875     0.000     0.001     1.502    53.596     0.085     0.021 .00000E+00 0.000E+00 0.000E+00 0.000E+00 0.000E+00 0.000E+00
BIGSUB    1        0    3.17227E+01   149.200     0.000    36.923    36.218   119.834    48.375    21.373    59.033   122.396    98.296     1.208     0.148     0.001     0.000     0.131    40.039     0.054     0.016 .00000E+00 0.000E+00 0.000E+00 0.000E+00 0.000E+00 0.000E+00
BIGSUB    2        0    3.22328E+01   149.200     0.000    37.004    36.299   119.854    50.063    33.329    61.164   123.777   113.353     1.474     0.180     0.001     0.000     0.152    27.232     0.043     0.017 .00000E+00 0.000E+00 0.000E+00 0.000E+00 0.000E+00 0.000E+00
BIGSUB    3        0    3.18344E+01   149.200     0.000    37.028    36.321   119.827    45.124    26.344    55.317   121.938   111.434     1.213     0.148     0.001     0.000     0.131    38.445     0.055     0.015 .00000E+00 0.000E+00 0.000E+00 0.000E+00 0.000E+00 0.000E+00
BIGSUB    1        0    4.17227E+01    87.100     0.000    37.944    36.501   117.192    24.207     5.897    47.869    81.543    15.402     0.095     0.012     0.000     0.000     0.010    25.746     0.033     0.009 .00000E+00 0.000E+00 0.000E+00 0.000E+00 0.000E+00 0.000E+00
BIGSUB    2        0    4.22328E+01    87.100     0.000    38.065    36.614   117.257    25.727    11.248    49.575    80.819    24.505     0.158     0.019     0.001     0.000     0.016    17.871     0.026     0.010 .00000E+00 0.000E+00 0.000E+00 0.000E+00 0.000E+00 0.000E+00
BIGSUB    3        0    4.18344E+01    87.100     0.000    38.100    36.644   117.162    22.679     7.986    44.747    79.490    19.983     0.092     0.011     0.000     0.000     0.010    24.852     0.033     0.009 .00000E+00 0.000E+00 0.000E+00 0.000E+00 0.000E+00 0.000E+00
BIGSUB    1        0    5.17227E+01    26.400     0.000    58.780    35.423   105.539     0.000     0.131    32.240    36.988     0.484     0.000     0.000     0.000     0.000     0.000     2.666     0.001     0.003 .00000E+00 0.000E+00 0.000E+00 0.000E+00 0.000E+00 0.000E+00
[...]
BIGSUB    1        0    4.17227E+01    71.500     0.000    41.527    39.138   116.291    13.524     3.984    63.043    85.251    14.025     0.093     0.011     0.000     0.000     0.010    15.628     0.011     0.010 .00000E+00 0.000E+00 0.000E+00 0.000E+00 0.000E+00 0.000E+00
BIGSUB    2        0    4.22328E+01    71.500     0.000    41.685    39.287   116.289    14.418     7.623    65.157    86.512    21.687     0.131     0.016     0.000     0.000     0.014    11.027     0.009     0.011 .00000E+00 0.000E+00 0.000E+00 0.000E+00 0.000E+00 0.000E+00
BIGSUB    3        0    4.18344E+01    71.500     0.000    41.731    39.315   116.282    12.407     5.474    59.018    82.053    17.942     0.092     0.011     0.000     0.000     0.010    15.129     0.011     0.009 .00000E+00 0.000E+00 0.000E+00 0.000E+00 0.000E+00 0.000E+00
BIGSUB    1        0    5.17227E+01    21.900     0.000    77.317    36.194    99.696     0.008     0.144    37.850    43.349     0.671     0.000     0.000     0.000     0.000     0.000     2.934     0.001     0.003 .00000E+00 0.000E+00 0.000E+00 0.000E+00 0.000E+00 0.000E+00
BIGSUB    2        0    5.22328E+01    21.900     0.000    77.558    36.313    99.784     0.015     0.490    39.300    44.389     1.915     0.001     0.000     0.000     0.000     0.000     2.076     0.001     0.003 .00000E+00 0.000E+00 0.000E+00 0.000E+00 0.000E+00 0.000E+00
BIGSUB    3        0    5.18344E+01    21.900     0.000    77.628    36.185    99.585     0.003     0.278    35.361    40.760     1.190     0.000     0.000     0.000     0.000     0.000     2.853     0.001     0.003 .00000E+00 0.000E+00 0.000E+00 0.000E+00 0.000E+00 0.000E+00
BIGSUB    1        0    6.17227E+01     8.200     0.000    79.447    21.125    86.333     0.000     0.014    16.703    19.173     0.081     0.000     0.000     0.000     0.000     0.000     0.560     0.000     0.000 .00000E+00 0.000E+00 0.000E+00 0.000E+00 0.000E+00 0.000E+00
BIGSUB    2        0    6.22328E+01     8.200     0.000    79.685    21.023    86.592     0.000     0.048    17.050    19.499     0.228     0.000     0.000     0.000     0.000     0.000     0.426     0.000     0.001 .00000E+00 0.000E+00 0.000E+00 0.000E+00 0.000E+00 0.000E+00
BIGSUB    3        0    6.18344E+01     8.200     0.000    79.754    21.054    86.281     0.000     0.028    15.307    17.667     0.144     0.000     0.000     0.000     0.000     0.000     0.558     0.000     0.000 .00000E+00 0.000E+00 0.000E+00 0.000E+00 0.000E+00 0.000E+00
BIGSUB    1        0    7.17227E+01     4.000     0.000    89.665    17.760    72.572     0.000     0.000     2.353     3.863     0.000     0.000     0.000     0.000     0.000     0.000     0.000     0.000     0.000 .00000E+00 0.000E+00 0.000E+00 0.000E+00 0.000E+00 0.000E+00
BIGSUB    2        0    7.22328E+01     4.000     0.000    89.919    16.169    74.423     0.000     0.000     3.258     4.830     0.000     0.000     0.000     0.000     0.000     0.000     0.000     0.000     0.000 .00000E+00 0.000E+00 0.000E+00 0.000E+00 0.000E+00 0.000E+00
BIGSUB    3        0    7.18344E+01     4.000     0.000    89.993    17.298    72.982     0.000     0.000     1.937     3.349     0.000     0.000     0.000     0.000     0.000     0.000     0.000     0.000     0.000 .00000E+00 0.000E+00 0.000E+00 0.000E+00 0.000E+00 0.000E+00
BIGSUB    1        0    8.17227E+01    17.200     0.000    66.336    16.906    70.954     0.000     0.166     0.056     3.096     0.900     0.000     0.000     0.001     0.000     0.000     1.743     0.003     0.000 .00000E+00 0.000E+00 0.000E+00 0.000E+00 0.000E+00 0.000E+00
BIGSUB    2        0    8.22328E+01    17.200     0.000    66.525    16.114    73.657     0.000     0.591     0.187     3.215     2.584     0.000     0.000     0.003     0.000     0.000     1.259     0.002     0.000 .00000E+00 0.000E+00 0.000E+00 0.000E+00 0.000E+00 0.000E+00
BIGSUB    3        0    8.18344E+01    17.200     0.000    66.580    16.643    71.487     0.000     0.339     0.023     3.131     1.599     0.000     0.000     0.002     0.000     0.000     1.710     0.003     0.000 .00000E+00 0.000E+00 0.000E+00 0.000E+00 0.000E+00 0.000E+00
BIGSUB    1        0    9.17227E+01    25.600     0.000    43.203    16.359    76.809     0.000     0.294     0.001     4.202     0.885     0.000     0.000     0.001     0.000     0.000     3.091     0.001     0.000 .00000E+00 0.000E+00 0.000E+00 0.000E+00 0.000E+00 0.000E+00
BIGSUB    2        0    9.22328E+01    25.600     0.000    43.360    16.152    79.819     0.000     1.053     0.001     4.137     2.530     0.000     0.000     0.002     0.000     0.000     2.233     0.001     0.000 .00000E+00 0.000E+00 0.000E+00 0.000E+00 0.000E+00 0.000E+00
BIGSUB    3        0    9.18344E+01    25.600     0.000    43.406    16.220    77.231     0.000     0.602     0.000     4.399     1.571     0.000     0.000     0.001     0.000     0.000     3.034     0.001     0.000 .00000E+00 0.000E+00 0.000E+00 0.000E+00 0.000E+00 0.000E+00
BIGSUB    1        0   10.17227E+01    46.200     0.000    40.959    20.631    94.741     0.000     0.895     0.000     7.421     1.649     0.002     0.000     0.000     0.000     0.000     5.902     0.001     0.000 .00000E+00 0.000E+00 0.000E+00 0.000E+00 0.000E+00 0.000E+00
BIGSUB    2        0   10.22328E+01    46.200     0.000    41.069    20.655    97.584     0.000     2.855     0.000     7.814     4.646     0.003     0.000     0.001     0.000     0.000     4.309     0.001     0.000 .00000E+00 0.000E+00 0.000E+00 0.000E+00 0.000E+00 0.000E+00
BIGSUB    3        0   10.18344E+01    46.200     0.000    41.101    20.452    94.700     0.000     1.681     0.000     8.054     2.875     0.002     0.000     0.001     0.000     0.000     5.789     0.001     0.000 .00000E+00 0.000E+00 0.000E+00 0.000E+00 0.000E+00 0.000E+00
BIGSUB    1        0   11.17227E+01    80.300     0.000    20.633    16.931   119.780    11.590     3.498     0.263    26.677    10.530     0.049     0.006     0.000     0.000     0.005    22.464     0.051     0.000 .00000E+00 0.000E+00 0.000E+00 0.000E+00 0.000E+00 0.000E+00
BIGSUB    2        0   11.22328E+01    80.300     0.000    20.658    16.788   119.796    16.018     8.560     0.598    25.739    21.717     0.079     0.010     0.001     0.000     0.008    16.102     0.040     0.000 .00000E+00 0.000E+00 0.000E+00 0.000E+00 0.000E+00 0.000E+00
BIGSUB    3        0   11.18344E+01    80.300     0.000    20.666    16.888   119.764    10.198     5.503     0.105    27.878    15.459     0.048     0.006     0.001     0.000     0.005    21.848     0.050     0.000 .00000E+00 0.000E+00 0.000E+00 0.000E+00 0.000E+00 0.000E+00
BIGSUB    1        0   12.17227E+01   124.600     0.000    14.168    14.059   119.924    55.995     8.824    10.181    64.867    22.453     0.134     0.016     0.000     0.000     0.015    45.344     0.123     0.002 .00000E+00 0.000E+00 0.000E+00 0.000E+00 0.000E+00 0.000E+00
BIGSUB    2        0   12.22328E+01   124.600     0.000    14.198    14.063   119.939    59.954    18.062    12.344    63.203    36.062     0.203     0.025     0.001     0.000     0.021    32.224     0.095     0.002 .00000E+00 0.000E+00 0.000E+00 0.000E+00 0.000E+00 0.000E+00
BIGSUB    3        0   12.18344E+01   124.600     0.000    14.207    14.090   119.915    53.406    12.599     9.275    66.490    29.213     0.132     0.016     0.000     0.000     0.014    44.134     0.123     0.001 .00000E+00 0.000E+00 0.000E+00 0.000E+00 0.000E+00 0.000E+00
BIGSUB    1        0 2015.17227E+01   987.900     0.000   551.853   274.056   119.924   317.780   103.079   307.225   722.617   344.934    25.198     3.064     0.004     0.002     2.548   295.101     0.416     0.063 .00000E+00 0.000E+00 0.000E+00 0.000E+00 0.000E+00 0.000E+00
BIGSUB    2        0 2015.22328E+01   987.900     0.000   553.365   271.626   119.939   334.352   180.645   322.772   723.984   435.389    23.882     2.905     0.011     0.003     2.413   202.511     0.323     0.069 .00000E+00 0.000E+00 0.000E+00 0.000E+00 0.000E+00 0.000E+00
BIGSUB    3        0 2015.18344E+01   987.900     0.000   553.804   273.240   119.915   297.775   134.609   287.032   721.984   404.849    25.917     3.152     0.007     0.002     2.624   284.224     0.417     0.058 .00000E+00 0.000E+00 0.000E+00 0.000E+00 0.000E+00 0.000E+00
BIGSUB    1        0    1.17227E+01    95.000     0.000    18.755    16.521   119.802    38.035     8.394    28.074    67.078    29.167     6.347     0.772     0.000     0.000     0.637    29.772     0.062     0.006 .00000E+00 0.000E+00 0.000E+00 0.000E+00 0.000E+00 0.000E+00
BIGSUB    2        0    1.22328E+01    95.000     0.000    18.761    16.529   119.846    39.923    16.393    30.945    68.941    46.057     9.686     1.178     0.001     0.001     0.973    20.681     0.047     0.007 .00000E+00 0.000E+00 0.000E+00 0.000E+00 0.000E+00 0.000E+00
BIGSUB    3        0    1.18344E+01    95.000     0.000    18.763    16.529   119.770    35.888    11.673    26.530    67.777    37.687     8.043     0.978     0.001     0.000     0.807    28.788     0.062     0.006 .00000E+00 0.000E+00 0.000E+00 0.000E+00 0.000E+00 0.000E+00
BIGSUB    1        0    2.17227E+01   236.800     0.000    27.210    27.209   119.442    95.070    37.532    39.447   154.783   130.164    14.085     1.712     0.001     0.001     1.422    76.661     0.120     0.011 .00000E+00 0.000E+00 0.000E+00 0.000E+00 0.000E+00 0.000E+00
BIGSUB    2        0    2.22328E+01   236.800     0.000    27.293    27.292   119.490    97.089    61.350    41.852   155.497   156.894    10.095     1.227     0.001     0.001     1.026    51.063     0.090     0.012 .00000E+00 0.000E+00 0.000E+00 0.000E+00 0.000E+00 0.000E+00
BIGSUB    3        0    2.18344E+01   236.800     0.000    27.317    27.315   119.402    88.773    47.285    37.188   158.779   150.065    13.428     1.632     0.001     0.001     1.359    73.231     0.120     0.010 .00000E+00 0.000E+00 0.000E+00 0.000E+00 0.000E+00 0.000E+00
BIGSUB    1        0    3.17227E+01   154.000     0.000    39.316    36.981   118.009    54.115    17.623    62.710   131.856    61.706     1.909     0.232     0.000     0.000     0.196    49.685     0.054     0.018 .00000E+00 0.000E+00 0.000E+00 0.000E+00 0.000E+00 0.000E+00
BIGSUB    2        0    3.22328E+01   154.000     0.000    39.399    37.058   118.003    55.490    31.796    64.915   131.799    79.057     1.439     0.175     0.001     0.000     0.147    33.151     0.041     0.020 .00000E+00 0.000E+00 0.000E+00 0.000E+00 0.000E+00 0.000E+00
BIGSUB    3        0    3.18344E+01   154.000     0.000    39.424    37.069   117.993    50.307    23.355    58.746   131.297    72.853     1.753     0.213     0.001     0.000     0.180    47.471     0.054     0.017 .00000E+00 0.000E+00 0.000E+00 0.000E+00 0.000E+00 0.000E+00
BIGSUB    1        0    4.17227E+01    59.300     0.000    53.338    39.261   107.943    13.704     1.808    54.077    74.503     8.499     0.091     0.011     0.000     0.000     0.010    16.553     0.016     0.010 .00000E+00 0.000E+00 0.000E+00 0.000E+00 0.000E+00 0.000E+00
BIGSUB    2        0    4.22328E+01    59.300     0.000    53.475    39.384   107.938    15.002     4.455    55.809    74.252    17.077     0.080     0.010     0.000     0.000     0.008    11.829     0.013     0.011 .00000E+00 0.000E+00 0.000E+00 0.000E+00 0.000E+00 0.000E+00
BIGSUB    3        0    4.18344E+01    59.300     0.000    53.515    39.376   107.921    12.873     2.874    50.520    71.431    12.357     0.086     0.010     0.000     0.000     0.009    16.104     0.016     0.010 .00000E+00 0.000E+00 0.000E+00 0.000E+00 0.000E+00 0.000E+00
BIGSUB    1        0    5.17227E+01    12.400     0.000    79.073    26.677    92.746     0.000     0.005    33.216    36.020     0.014     0.000     0.000     0.000     0.000     0.000     0.830     0.000     0.003 .00000E+00 0.000E+00 0.000E+00 0.000E+00 0.000E+00 0.000E+00
BIGSUB    2        0    5.22328E+01    12.400     0.000    79.328    26.279    93.344     0.000     0.019    34.496    37.206     0.041     0.000     0.000     0.000     0.000     0.000     0.633     0.000     0.003 .00000E+00 0.000E+00 0.000E+00 0.000E+00 0.000E+00 0.000E+00
BIGSUB    3        0    5.18344E+01    12.400     0.000    79.402    26.599    92.800     0.000     0.011    31.020    33.702     0.025     0.000     0.000     0.000     0.000     0.000     0.828     0.000     0.003 .00000E+00 0.000E+00 0.000E+00 0.000E+00 0.000E+00 0.000E+00
BIGSUB    1        0    6.17227E+01     6.400     0.000    92.166    20.652    78.332     0.000     0.000    14.371    16.152     0.000     0.000     0.000     0.000     0.000     0.000     0.229     0.000     0.000 .00000E+00 0.000E+00 0.000E+00 0.000E+00 0.000E+00 0.000E+00
BIGSUB    2        0    6.22328E+01     6.400     0.000    92.419    19.828    79.793     0.000     0.000    14.463    16.260     0.000     0.000     0.000     0.000     0.000     0.000     0.174     0.000     0.001 .00000E+00 0.000E+00 0.000E+00 0.000E+00 0.000E+00 0.000E+00
BIGSUB    3        0    6.18344E+01     6.400     0.000    92.493    20.414    78.626     0.000     0.000    13.102    14.783     0.000     0.000     0.000     0.000     0.000     0.000     0.228     0.000     0.000 .00000E+00 0.000E+00 0.000E+00 0.000E+00 0.000E+00 0.000E+00
BIGSUB    1        0    7.17227E+01     4.600     0.000   112.252    16.892    65.726     0.000     0.000     1.034     2.618     0.000     0.000     0.000     0.000     0.000     0.000     0.344     0.001     0.000 .00000E+00 0.000E+00 0.000E+00 0.000E+00 0.000E+00 0.000E+00
BIGSUB    2        0    7.22328E+01     4.600     0.000   112.499    15.568    68.586     0.000     0.000     2.008     3.566     0.000     0.000     0.000     0.000     0.000     0.000     0.262     0.000     0.000 .00000E+00 0.000E+00 0.000E+00 0.000E+00 0.000E+00 0.000E+00
BIGSUB    3        0    7.18344E+01     4.600     0.000   112.571    16.464    66.448     0.000     0.000     0.680     2.183     0.000     0.000     0.000     0.000     0.000     0.000     0.343     0.001     0.000 .00000E+00 0.000E+00 0.000E+00 0.000E+00 0.000E+00 0.000E+00
BIGSUB    1        0    8.17227E+01     6.000     0.000    80.696    10.905    60.697     0.000     0.000     0.020     1.024     0.000     0.000     0.000     0.000     0.000     0.000     0.074     0.001     0.000 .00000E+00 0.000E+00 0.000E+00 0.000E+00 0.000E+00 0.000E+00
BIGSUB    2        0    8.22328E+01     6.000     0.000    80.909    10.307    64.184     0.000     0.000     0.036     1.065     0.000     0.000     0.000     0.000     0.000     0.000     0.057     0.001     0.000 .00000E+00 0.000E+00 0.000E+00 0.000E+00 0.000E+00 0.000E+00
BIGSUB    3        0    8.18344E+01     6.000     0.000    80.972    10.636    61.689     0.000     0.000     0.008     0.952     0.000     0.000     0.000     0.000     0.000     0.000     0.074     0.002     0.000 .00000E+00 0.000E+00 0.000E+00 0.000E+00 0.000E+00 0.000E+00
BIGSUB    1        0    9.17227E+01    30.700     0.000    60.858    13.376    73.427     0.000     0.358     0.000     5.201     1.349     0.000     0.000     0.005     0.000     0.000     4.172     0.017     0.000 .00000E+00 0.000E+00 0.000E+00 0.000E+00 0.000E+00 0.000E+00
BIGSUB    2        0    9.22328E+01    30.700     0.000    61.004    12.863    77.662     0.000     1.270     0.000     5.013     3.919     0.001     0.000     0.016     0.000     0.000     3.041     0.013     0.000 .00000E+00 0.000E+00 0.000E+00 0.000E+00 0.000E+00 0.000E+00
BIGSUB    3        0    9.18344E+01    30.700     0.000    61.047    13.191    74.299     0.000     0.729     0.000     5.463     2.405     0.000     0.000     0.010     0.000     0.000     4.106     0.017     0.000 .00000E+00 0.000E+00 0.000E+00 0.000E+00 0.000E+00 0.000E+00
BIGSUB    1        0   10.17227E+01    35.600     0.000    41.127    21.886    82.016     0.000     0.292     0.000     5.576     1.195     0.000     0.000     0.000     0.000     0.000     4.770     0.001     0.000 .00000E+00 0.000E+00 0.000E+00 0.000E+00 0.000E+00 0.000E+00
BIGSUB    2        0   10.22328E+01    35.600     0.000    41.207    22.165    86.470     0.000     1.050     0.000     5.124     3.510     0.000     0.000     0.000     0.000     0.000     3.537     0.001     0.000 .00000E+00 0.000E+00 0.000E+00 0.000E+00 0.000E+00 0.000E+00
BIGSUB    3        0   10.18344E+01    35.600     0.000    41.230    21.696    82.828     0.000     0.597     0.000     5.797     2.141     0.000     0.000     0.000     0.000     0.000     4.719     0.001     0.000 .00000E+00 0.000E+00 0.000E+00 0.000E+00 0.000E+00 0.000E+00
BIGSUB    1        0   11.17227E+01    41.200     0.000    42.650    21.540    92.584     0.000     1.232     0.000     8.435     5.465     0.024     0.003     0.000     0.000     0.003     6.835     0.007     0.000 .00000E+00 0.000E+00 0.000E+00 0.000E+00 0.000E+00 0.000E+00
BIGSUB    2        0   11.22328E+01    41.200     0.000    42.600    21.487    96.868     0.000     3.818     0.000     8.995    14.210     0.025     0.003     0.001     0.000     0.003     4.793     0.005     0.000 .00000E+00 0.000E+00 0.000E+00 0.000E+00 0.000E+00 0.000E+00
BIGSUB    3        0   11.18344E+01    41.200     0.000    42.585    21.435    92.735     0.000     2.261     0.000     9.220     9.117     0.022     0.003     0.001     0.000     0.003     6.614     0.007     0.000 .00000E+00 0.000E+00 0.000E+00 0.000E+00 0.000E+00 0.000E+00
BIGSUB    1        0   12.17227E+01   151.600     0.000    14.544    14.455   119.929    47.736     9.946     1.422    58.661    21.619     0.422     0.051     0.000     0.000     0.045    46.973     0.123     0.000 .00000E+00 0.000E+00 0.000E+00 0.000E+00 0.000E+00 0.000E+00
BIGSUB    2        0   12.22328E+01   151.600     0.000    14.551    14.436   120.005    55.766    20.757     2.722    57.827    35.074     0.371     0.045     0.001     0.000     0.038    33.994     0.099     0.001 .00000E+00 0.000E+00 0.000E+00 0.000E+00 0.000E+00 0.000E+00
BIGSUB    3        0   12.18344E+01   151.600     0.000    14.553    14.461   119.877    44.822    14.421     1.063    61.699    28.233     0.396     0.048     0.001     0.000     0.042    45.918     0.124     0.000 .00000E+00 0.000E+00 0.000E+00 0.000E+00 0.000E+00 0.000E+00
BIGSUB    1        0 2016.17227E+01   833.600     0.000   661.987   266.356   119.929   248.660    77.191   234.370   561.907   259.177    22.878     2.782     0.007     0.001     2.311   236.900     0.403     0.049 .00000E+00 0.000E+00 0.000E+00 0.000E+00 0.000E+00 0.000E+00
BIGSUB    2        0 2016.22328E+01   833.600     0.000   663.447   263.195   120.005   263.271   140.908   247.247   565.544   355.842    21.697     2.638     0.023     0.002     2.195   163.215     0.313     0.055 .00000E+00 0.000E+00 0.000E+00 0.000E+00 0.000E+00 0.000E+00
BIGSUB    3        0 2016.18344E+01   833.600     0.000   663.871   265.187   119.877   232.664   103.207   218.857   563.083   314.883    23.727     2.885     0.014     0.001     2.400   228.424     0.404     0.046 .00000E+00 0.000E+00 0.000E+00 0.000E+00 0.000E+00 0.000E+00
BIGSUB    1        0 36.0.17227E+01  1132.969     0.003   523.261   264.512   119.929   373.480   159.743   343.225   855.099   526.450    31.637     3.863     0.004     0.003     3.130   333.544     0.557     0.087 .00000E+00 0.000E+00 0.000E+00 0.000E+00 0.000E+00 0.000E+00
BIGSUB    2        0 36.0.22328E+01  1132.969     0.003   524.655   262.436   120.005   388.187   254.945   356.991   857.012   611.681    30.416     3.715     0.011     0.004     3.007   225.765     0.432     0.094 .00000E+00 0.000E+00 0.000E+00 0.000E+00 0.000E+00 0.000E+00
BIGSUB    3        0 36.0.18344E+01  1132.969     0.003   525.061   263.852   119.877   348.953   198.448   319.958   855.811   598.244    32.531     3.973     0.007     0.003     3.222   320.038     0.559     0.081 .00000E+00 0.000E+00 0.000E+00 0.000E+00 0.000E+00 0.000E+00
